11
0012_+.log
C      0.000000    1.250377    0.283908
N      0.000000    0.000000   -0.527864
C     -0.000000   -1.250377    0.283908
H     -0.000000    2.108988   -0.385107
H      0.891933    1.258170    0.907279
H     -0.891933    1.258170    0.907279
H      0.815208   -0.000000   -1.144114
H     -0.815208    0.000000   -1.144114
H      0.891933   -1.258170    0.907279
H     -0.000000   -2.108988   -0.385107
H     -0.891933   -1.258170    0.907279
