12
0029_+.log
C     -1.108710    0.197163    0.000000
C     -0.045856   -0.096745    1.065288
N      1.035379   -0.000016    0.000000
C     -0.045856   -0.096745   -1.065288
H     -1.981713   -0.449672    0.000000
H     -1.431817    1.237353   -0.000000
H     -0.065295   -1.115047    1.449065
H      0.103198    0.609778    1.878229
H      1.503412    0.905524    0.000000
H      1.750817   -0.725870   -0.000000
H      0.103198    0.609778   -1.878229
H     -0.065295   -1.115047   -1.449065
