12
0037_+.log
C      0.462266    1.469762   -0.000000
N      0.489626   -0.000071    0.000000
C     -0.518677   -0.793445    0.735624
C     -0.518677   -0.793445   -0.735624
H      0.966485    1.832306   -0.894733
H      0.966485    1.832306    0.894733
H     -0.574788    1.801346   -0.000000
H      1.425130   -0.394481    0.000000
H     -0.122472   -1.646678    1.270898
H     -1.244122   -0.189988    1.265879
H     -1.244122   -0.189988   -1.265879
H     -0.122472   -1.646678   -1.270898
