10
0041_+.log
N      1.612307   -0.000029   -0.000000
C      0.335804   -0.814944   -0.000000
C     -0.801518    0.070487   -0.000000
C     -1.740754    0.813686    0.000000
H      2.443737   -0.596077    0.000000
H      1.647068    0.605629    0.824017
H      1.647068    0.605629   -0.824017
H      0.365563   -1.450853    0.887561
H      0.365563   -1.450853   -0.887561
H     -2.586278    1.466958    0.000000
