12
0059_+.log
N     -1.851324    0.086255   -0.000000
C     -0.430624    0.569242    0.000000
C      0.536036   -0.598951    0.000000
O      1.792197    0.000042   -0.000000
H     -2.508951    0.868835    0.000000
H     -2.050568   -0.484876    0.824887
H     -2.050568   -0.484876   -0.824887
H     -0.294357    1.186660   -0.887860
H     -0.294357    1.186660    0.887860
H      0.369106   -1.224837    0.890520
H      0.369106   -1.224837   -0.890520
H      2.483666   -0.668314   -0.000000
