13
0091_+.log
C      0.296163    0.136500    1.221981
N      1.178252   -0.000034   -0.000000
C      0.296163    0.136500   -1.221981
C     -1.057334   -0.150871   -0.661722
C     -1.057334   -0.150871    0.661722
H      0.638018   -0.558835    1.989430
H      0.389213    1.154792    1.609571
H      1.941453    0.676007   -0.000000
H      1.602543   -0.927421   -0.000000
H      0.389213    1.154792   -1.609571
H      0.638018   -0.558835   -1.989430
H     -1.916030   -0.300831   -1.301490
H     -1.916030   -0.300831    1.301490
