15
0093_+.log
C      1.758911    0.000150   -0.737611
C      0.409372    0.466730   -0.285946
C     -0.872041   -0.181239   -0.835148
C     -1.399783   -0.257311    0.599266
N      0.000015   -0.000084    1.121737
H      2.562223    0.441333   -0.143726
H      1.907791    0.311570   -1.773876
H      1.841740   -1.089370   -0.706238
H      0.335539    1.555492   -0.273799
H     -0.684603   -1.164162   -1.268671
H     -1.453165    0.414546   -1.534177
H     -2.038056    0.576177    0.885867
H     -1.817936   -1.192646    0.963201
H      0.097741    0.669863    1.883167
H      0.481922   -0.858928    1.387177
