15
0094_+.log
C     -0.820715   -0.557743    1.279688
C     -0.228061   -0.048627    0.000000
C     -0.820715   -0.557743   -1.279688
C      0.478499    1.245318    0.000000
N      1.285778    0.000162    0.000000
H     -0.298267   -0.177676    2.160181
H     -0.819270   -1.648672    1.303783
H     -1.857741   -0.222311    1.341181
H     -0.298267   -0.177676   -2.160181
H     -1.857741   -0.222311   -1.341181
H     -0.819270   -1.648672   -1.303783
H      0.556155    1.814782   -0.917732
H      0.556155    1.814782    0.917732
H      1.776839   -0.248614    0.851515
H      1.776839   -0.248614   -0.851515
