15
0095_+.log
C      1.357052   -0.000067   -1.459418
C      0.030413    0.099617   -0.781858
C     -0.613628   -1.055218   -0.130171
N      0.000340   -0.000194    0.706563
C     -0.815141    0.892037    1.539735
H      1.196230   -0.242004   -2.511829
H      1.976388   -0.790699   -1.029412
H      1.897268    0.946634   -1.412712
H     -0.634186    0.885357   -1.126071
H     -1.692396   -1.100285   -0.051871
H     -0.094330   -2.005522   -0.107104
H      0.890256   -0.257997    1.122230
H     -1.741426    1.116132    1.013433
H     -0.262054    1.812681    1.721110
H     -1.039207    0.393163    2.481982
