15
0096_+.log
C     -1.934499   -0.304692    0.000000
C     -0.597907    0.391457   -0.000000
C      0.437714   -0.016803    1.062658
N      1.522307    0.000580    0.000000
C      0.437714   -0.016803   -1.062658
H     -2.516653   -0.024133    0.879612
H     -1.818686   -1.391467    0.000000
H     -2.516653   -0.024133   -0.879612
H     -0.727299    1.476747    0.000000
H      0.316884   -1.040790    1.415136
H      0.650250    0.649409    1.895785
H      2.184191   -0.774184    0.000000
H      2.052513    0.870893    0.000000
H      0.650250    0.649409   -1.895785
H      0.316884   -1.040790   -1.415136
