15
0097_+.log
C      1.967336   -0.000036    0.477852
C      0.581247    0.452441    0.159682
N     -0.000000    0.000000   -1.146369
C     -0.581247   -0.452441    0.159682
C     -1.967336    0.000036    0.477852
H      2.140699    0.130978    1.547758
H      2.709682    0.594803   -0.056394
H      2.115028   -1.056691    0.243598
H      0.361741    1.502089    0.330954
H     -0.534481    0.663267   -1.696785
H      0.534481   -0.663267   -1.696785
H     -0.361741   -1.502089    0.330954
H     -2.115028    1.056691    0.243598
H     -2.140699   -0.130978    1.547758
H     -2.709682   -0.594803   -0.056394
