15
0099_+.log
C      1.552020    0.000408   -1.469002
C      0.118394   -0.346297   -1.100601
C     -0.405573    0.450330    0.053361
C     -1.416207   -0.068444    0.985964
N     -0.000391   -0.000726    1.426221
H      1.868933   -0.583529   -2.332985
H      2.248955   -0.216324   -0.655366
H      1.652082    1.056248   -1.728976
H     -0.551204   -0.141776   -1.942121
H      0.010305   -1.415814   -0.885617
H     -0.336302    1.530583   -0.031247
H     -1.782209   -1.079658    0.857503
H     -2.073458    0.612002    1.511793
H      0.513978   -0.872185    1.499646
H      0.257083    0.691248    2.121057
