11
0101_+.log
C      1.225197    0.000086   -1.877576
C      0.477092    0.209869   -0.965585
C     -0.431443    0.470522    0.100275
C     -1.155112   -0.622033    0.784796
N      0.000028   -0.000098    1.467620
H      1.892026   -0.185364   -2.691794
H     -0.876964    1.460037    0.139718
H     -2.109476   -0.413218    1.250434
H     -0.979592   -1.640656    0.464548
H      0.868103   -0.525673    1.511726
H     -0.168719    0.605990    2.264262
