17
0102_+.log
C     -2.516536   -0.655673    0.000000
C     -1.377641    0.348893   -0.000000
C     -0.011831   -0.329946    0.000000
C      1.106511    0.685096    0.000000
N      2.451592    0.000009   -0.000000
H     -3.479770   -0.144732   -0.000000
H     -2.482048   -1.297244    0.883777
H     -2.482048   -1.297244   -0.883777
H     -1.457022    0.999649   -0.877309
H     -1.457022    0.999649    0.877309
H      0.072505   -0.976389    0.882314
H      0.072505   -0.976389   -0.882314
H      1.086983    1.321710   -0.885863
H      1.086983    1.321710    0.885863
H      2.553968   -0.597557   -0.823252
H      2.553968   -0.597557    0.823252
H      3.223917    0.669363    0.000000
