17
0110_+.log
C     -0.727784   -0.519380    1.260396
C     -0.000037   -0.090565    0.000000
C     -0.727784   -0.519380   -1.260396
C      1.455410   -0.519305   -0.000000
N      0.000107    1.443421    0.000000
H     -0.752568   -1.608591    1.303654
H     -1.763247   -0.169194    1.273216
H     -0.221576   -0.168920    2.163721
H     -0.752568   -1.608591   -1.303654
H     -0.221576   -0.168920   -2.163721
H     -1.763247   -0.169194   -1.273216
H      1.505365   -1.608447    0.000000
H      1.984486   -0.168935    0.890205
H      1.984486   -0.168935   -0.890205
H      0.477521    1.807916   -0.826752
H      0.477521    1.807916    0.826752
H     -0.954508    1.808209    0.000000
