13
0112_+.log
C      0.944501   -0.000096   -2.491357
C      0.276434   -0.002560   -1.210682
C     -0.293968   -0.000075   -0.151332
C     -0.997640    0.001576    1.102935
N     -0.000193   -0.000125    2.249645
H      0.253086    0.331393   -3.269796
H      1.299045   -1.000206   -2.748397
H      1.796932    0.682562   -2.481488
H     -1.622599   -0.884427    1.238051
H     -1.619416    0.889846    1.237803
H      0.599814   -0.826074    2.190166
H     -0.463113    0.003458    3.161539
H      0.606290    0.820828    2.186907
