17
0114_+.log
C      1.915566    0.000527   -0.807896
C      0.438939   -0.342943   -0.928626
C     -0.461220    0.358697    0.071856
C     -1.925658    0.009272   -0.053060
N     -0.000727   -0.000514    1.475472
H      2.474896   -0.443366   -1.631563
H      2.377331   -0.390547    0.105784
H      2.084088    1.079977   -0.846412
H      0.074738   -0.054356   -1.917906
H      0.282845   -1.426317   -0.859715
H     -0.315732    1.441178    0.010447
H     -2.090203   -1.067982    0.038594
H     -2.281339    0.311972   -1.038331
H     -2.540234    0.526674    0.687557
H     -0.121319   -1.002032    1.644104
H     -0.535873    0.502001    2.185438
H      0.989700    0.220135    1.599260
