15
0119_+.log
C      1.775297   -0.000624   -0.089432
C      0.317408   -0.319242    0.160364
N      0.001657    0.000924    1.623986
C     -0.636733    0.449575   -0.692485
C     -1.612081   -0.122545   -1.383445
H      2.021402   -0.269946   -1.116667
H      2.439603   -0.565032    0.569611
H      1.978219    1.067334    0.027759
H      0.127481   -1.390945    0.068721
H      0.140639    0.997256    1.807894
H      0.605103   -0.521564    2.262735
H     -0.972943   -0.220007    1.837672
H     -0.470121    1.523527   -0.758319
H     -1.779069   -1.195309   -1.362881
H     -2.270097    0.461649   -2.015293
