15
0122_+.log
C      1.382021    1.270005    0.000000
N      0.635069   -0.000101    0.000000
C     -0.422963   -0.245676    1.060357
C     -1.331412   -0.876740    0.000000
C     -0.422963   -0.245676   -1.060357
H      2.005856    1.318162    0.892180
H      0.671088    2.094450   -0.000000
H      2.005856    1.318162   -0.892180
H      1.297121   -0.775601   -0.000000
H     -0.771101    0.719623    1.425388
H     -0.062054   -0.852835    1.887959
H     -2.368572   -0.553053    0.000000
H     -1.294185   -1.965209    0.000000
H     -0.062054   -0.852835   -1.887959
H     -0.771101    0.719623   -1.425388
