13
0126_+.log
C      2.130106    1.010417    0.000000
N      1.037933   -0.000023   -0.000000
C     -0.351572    0.586555   -0.000000
C     -1.333011   -0.471147    0.000000
C     -2.133479   -1.362248    0.000000
H      3.088553    0.494678    0.000000
H      2.036505    1.626240    0.892426
H      2.036505    1.626240   -0.892425
H      1.122999   -0.612744   -0.814590
H      1.122999   -0.612744    0.814590
H     -0.429829    1.220533    0.886474
H     -0.429829    1.220533   -0.886474
H     -2.859110   -2.146107    0.000000
