15
0132_+.log
N     -0.000339   -0.000243    2.352142
C      0.575232    0.000655    0.956189
C     -0.510241    0.246493   -0.073633
C      0.086906    0.328472   -1.445885
C     -0.143995   -0.554788   -2.404260
H      0.717161   -0.166893    3.060727
H     -0.712923   -0.726688    2.451779
H     -0.447255    0.894957    2.562751
H      1.055987   -0.967765    0.815937
H      1.341396    0.777008    0.939961
H     -1.029909    1.185232    0.159880
H     -1.250131   -0.559946   -0.040517
H      0.738278    1.178071   -1.636547
H     -0.800353   -1.406618   -2.255380
H      0.306381   -0.450239   -3.383646
