15
0194_+.log
C      0.417789   -1.233447   -1.486089
N      0.821733   -0.000492   -0.761649
C     -0.294340    0.934343   -0.406452
C     -1.021665    0.381424    0.801164
O      0.000345    0.001520    1.694361
H      1.303733   -1.837068   -1.674673
H     -0.051790   -0.952529   -2.426744
H     -0.280643   -1.792732   -0.868521
H      1.243072   -0.256560    0.142371
H      1.527647    0.497531   -1.302791
H      0.169814    1.889894   -0.159911
H     -0.944318    1.056380   -1.272176
H     -1.662280    1.170935    1.205824
H     -1.660403   -0.468364    0.533246
H     -0.362015   -0.292906    2.534624
