16
0326_+.log
C      1.509638   -0.000123   -0.699652
C      0.113048    0.410657   -1.049398
C     -0.978470   -0.617240   -0.793878
C     -1.284529   -0.506136    0.695150
N      0.000204    0.000220    1.315781
C      0.706223    0.794601    0.269545
H      2.336458    0.515682   -1.170950
H      1.697233   -1.048770   -0.489630
H     -0.040189    1.167734   -1.806568
H     -1.875465   -0.401964   -1.373439
H     -0.651242   -1.623620   -1.062655
H     -1.581591   -1.432189    1.186078
H     -2.035114    0.259697    0.889041
H      0.583622   -0.776062    1.632603
H     -0.191912    0.572267    2.138083
H      0.970820    1.797140    0.574835
