16
0327_+.log
C      1.455504   -0.000090    0.784208
C      0.595454    0.928589    0.032372
C      0.053820    0.504286   -1.316645
C     -1.172107   -0.362948   -0.991008
C     -0.870245   -1.000244    0.359840
N      0.000177   -0.000032    1.043938
H      2.057633    0.368612    1.605604
H      1.811349   -0.901596    0.300047
H      0.595289    1.973312    0.319544
H     -0.212463    1.371661   -1.918614
H      0.811519   -0.057610   -1.866077
H     -1.368078   -1.114213   -1.755245
H     -2.061424    0.265242   -0.910433
H     -0.317196   -1.936684    0.283629
H     -1.750680   -1.165901    0.978725
H     -0.308849    0.368907    1.935926
