16
0328_+.log
C     -1.065485    1.021611    0.000000
C     -0.698042    0.166101    1.222315
C      0.408357   -0.730181    0.737231
N      1.487892    0.000084   -0.000000
C      0.408357   -0.730181   -0.737231
C     -0.698042    0.166101   -1.222315
H     -2.116429    1.305557   -0.000000
H     -0.506287    1.962025    0.000000
H     -0.424860    0.748069    2.103969
H     -1.523785   -0.489502    1.511775
H      0.778415   -1.560279    1.325663
H      1.473791    1.014851   -0.000000
H      2.417094   -0.404195   -0.000000
H      0.778415   -1.560279   -1.325663
H     -1.523785   -0.489502   -1.511775
H     -0.424860    0.748069   -2.103969
