14
0329_+.log
C      1.431374    0.000015    0.649673
C      0.522070    0.975484    0.012374
C     -0.121369    0.548797   -1.252504
C     -0.897442   -0.510603   -1.065857
C     -0.951663   -0.934713    0.367977
N     -0.000100   -0.000033    1.023157
H      2.087420    0.318421    1.450652
H      1.741952   -0.867267    0.080248
H      0.558580    2.016627    0.313702
H      0.065731    1.055330   -2.188980
H     -1.445252   -1.039862   -1.833592
H     -0.634496   -1.965144    0.543562
H     -1.938153   -0.794811    0.817101
H     -0.227084    0.330948    1.953753
