16
0331_+.log
C      1.285305   -0.000057    0.567048
C      1.078991    0.735685   -0.738768
C     -0.211969    0.357660   -1.391616
C     -1.167278   -0.331231   -0.781024
C     -1.083795   -0.760510    0.644880
N      0.000044    0.000094    1.344257
H      2.051947    0.456915    1.192664
H      1.539105   -1.048583    0.404680
H      1.916575    0.494161   -1.399058
H      1.129913    1.821286   -0.591183
H     -0.356129    0.672815   -2.419018
H     -2.078007   -0.605527   -1.300525
H     -0.854085   -1.824489    0.753942
H     -2.015228   -0.565528    1.181013
H     -0.307687    0.966704    1.472011
H      0.151009   -0.388178    2.275907
