16
0337_+.log
C      0.248692   -0.785560    1.036739
C     -0.882442   -0.665500   -0.000000
C      0.248692   -0.785560   -1.036739
N      1.025829   -0.000002    0.000000
C      0.332582    1.334089   -0.000000
C     -1.134016    0.846146    0.000000
H      0.162990   -0.279782    1.997363
H      0.672620   -1.783055    1.135941
H     -1.732436   -1.338636   -0.000000
H      0.672620   -1.783055   -1.135941
H      0.162990   -0.279782   -1.997363
H      2.044541    0.012746    0.000000
H      0.627705    1.886583   -0.890302
H      0.627705    1.886583    0.890302
H     -1.678203    1.175723    0.884076
H     -1.678203    1.175723   -0.884076
