16
0346_+.log
C     -1.179365   -1.065297   -0.000000
C     -0.845770    0.183872    0.752254
C      0.570610    0.357487    1.217689
N      1.391120   -0.000609    0.000000
C      0.570610    0.357487   -1.217689
C     -0.845770    0.183872   -0.752254
H     -0.487547   -1.903456   -0.000000
H     -2.216379   -1.372974   -0.000000
H     -1.612655    0.696309    1.317200
H      0.786782    1.396357    1.470010
H      0.880292   -0.285409    2.042740
H      2.298391    0.464264   -0.000000
H      1.577459   -1.002650    0.000000
H      0.880292   -0.285409   -2.042740
H      0.786782    1.396357   -1.470011
H     -1.612655    0.696309   -1.317200
