18
0353_+.log
C      1.867550    0.000080   -1.008656
C      0.506362    0.410275   -0.505317
C     -0.757732    0.156286   -1.362291
C     -1.542746   -0.146663   -0.067536
C     -0.188234   -0.425516    0.575881
N     -0.000051    0.000078    2.011140
H      2.647576    0.140505   -0.254885
H      2.148632    0.600759   -1.875655
H      1.874415   -1.048364   -1.316536
H      0.505375    1.464028   -0.197165
H     -0.644154   -0.734161   -1.982664
H     -1.114098    0.977260   -1.980368
H     -2.004072    0.761860    0.330210
H     -2.277797   -0.949732   -0.069502
H      0.095506   -1.478776    0.534638
H     -0.255051    0.983295    2.126075
H      0.972427   -0.107294    2.308341
H     -0.584213   -0.549069    2.645899
