18
0356_+.log
C      2.196809    0.000073   -0.051330
C      0.755462    0.437764   -0.109625
C     -0.105181   -0.135905   -1.219952
C     -1.526127    0.053812   -0.709100
C     -1.432089   -0.325556    0.761189
N      0.000087   -0.000007    1.147450
H      2.708289    0.331856   -0.955973
H      2.281496   -1.089650   -0.008448
H      2.727381    0.433789    0.799013
H      0.681478    1.528293   -0.116320
H      0.124534   -1.196351   -1.367366
H      0.081670    0.377105   -2.163090
H     -2.256845   -0.566109   -1.227218
H     -1.838549    1.094916   -0.818442
H     -2.109420    0.217310    1.417585
H     -1.572378   -1.393937    0.920097
H      0.041822    0.723237    1.863477
H      0.456175   -0.821951    1.542878
