18
0358_+.log
C      2.275489   -0.003866   -0.037409
C      0.936098    0.675896    0.021135
C     -0.064666    0.343864   -1.097112
C     -0.827403   -0.566528   -0.123824
C     -2.309863   -0.410606    0.041218
N     -0.000519    0.004246    1.034716
H      2.837683    0.129773    0.889440
H      2.858875    0.443442   -0.844144
H      2.182598   -1.071844   -0.251886
H      1.034530    1.732632    0.266641
H      0.360143   -0.147854   -1.969802
H     -0.653536    1.202052   -1.421039
H     -0.542707   -1.614257   -0.225362
H     -2.591459    0.636286    0.182842
H     -2.691109   -1.003121    0.875607
H     -2.803343   -0.763569   -0.866690
H     -0.529770    0.668104    1.598793
H      0.435473   -0.673146    1.658990
