18
0362_+.log
C      1.019794    0.000063   -2.002604
C      0.299434    0.388204   -0.726391
C     -1.055500   -0.285752   -0.519246
C     -1.368127   -0.050598    0.945979
N     -0.000026   -0.000335    1.618752
C      1.050547   -0.024371    0.528505
H      0.439699    0.303400   -2.874994
H      1.168883   -1.081514   -2.057625
H      1.995778    0.483544   -2.072710
H      0.158702    1.476135   -0.707735
H     -0.979940   -1.355483   -0.734841
H     -1.836021    0.127018   -1.158234
H     -1.964861   -0.826021    1.422517
H     -1.842750    0.914495    1.118233
H      0.083762    0.846340    2.178698
H      0.124431   -0.781157    2.260968
H      1.877922    0.623475    0.814359
H      1.411066   -1.051348    0.450670
