18
0365_+.log
C     -1.585905   -1.032723    0.000000
C     -0.477194   -0.004171    0.000000
C     -1.015223    1.417714    0.000000
C      0.628053   -0.207497    1.063323
N      1.688268    0.003621   -0.000000
C      0.628053   -0.207497   -1.063323
H     -2.221147   -0.911645    0.880141
H     -1.196162   -2.053396    0.000000
H     -2.221147   -0.911645   -0.880141
H     -1.633993    1.591109    0.882386
H     -1.633993    1.591109   -0.882386
H     -0.220185    2.170519    0.000000
H      0.706405   -1.228508    1.434537
H      0.707857    0.504258    1.882830
H      2.474672   -0.643751   -0.000000
H      2.059235    0.952307   -0.000000
H      0.707857    0.504258   -1.882830
H      0.706405   -1.228508   -1.434537
