18
0366_+.log
C     -2.296837    0.694109    0.000000
C     -0.792442    0.599743   -0.000000
C     -0.102633   -0.277470    1.074424
C      0.859012   -0.795258   -0.000000
N      2.144103   -0.002229    0.000000
C     -0.102633   -0.277470   -1.074424
H     -2.656360    1.228750    0.881698
H     -2.749731   -0.300806    0.000000
H     -2.656360    1.228750   -0.881697
H     -0.365924    1.609825   -0.000000
H     -0.752350   -1.089077    1.406056
H      0.322389    0.199029    1.961468
H      1.155171   -1.843764   -0.000000
H      1.945228    1.000938    0.000000
H      2.708244   -0.207776   -0.827350
H      2.708244   -0.207776    0.827350
H      0.322389    0.199029   -1.961468
H     -0.752350   -1.089077   -1.406056
