18
0372_+.log
C      1.113443   -0.001952   -1.823894
C      0.361477   -0.463374   -0.601607
C      1.137572   -0.649968    0.710040
N     -0.001330   -0.003438    1.469282
C     -0.531968    0.552167    0.140255
C     -2.022184    0.530833   -0.009760
H      0.425251    0.219811   -2.641715
H      1.795898   -0.778241   -2.174629
H      1.698863    0.897418   -1.617078
H     -0.219145   -1.364258   -0.823031
H      2.015177   -0.009293    0.790070
H      1.368157   -1.652515    1.063163
H     -0.640637   -0.689448    1.870163
H      0.242403    0.669481    2.194268
H     -0.124449    1.562337    0.055123
H     -2.426930   -0.476230    0.119768
H     -2.278196    0.861091   -1.018848
H     -2.513447    1.209752    0.690485
