18
0375_+.log
C     -1.892695   -1.299262    0.000000
C     -1.207087    0.050221   -0.000000
C     -0.104632    0.222537    1.060367
N      0.956116    0.000057   -0.000000
C      2.164952    0.842315   -0.000000
C     -0.104632    0.222537   -1.060367
H     -2.526983   -1.408529    0.881368
H     -1.176764   -2.127467    0.000000
H     -2.526984   -1.408529   -0.881368
H     -1.940386    0.855220   -0.000000
H     -0.045091   -0.499001    1.874016
H     -0.000377    1.236172    1.444940
H      1.234720   -0.980099   -0.000000
H      1.861948    1.888119   -0.000000
H      2.752067    0.626317   -0.892223
H      2.752067    0.626317    0.892223
H     -0.000377    1.236172   -1.444940
H     -0.045091   -0.499001   -1.874016
