18
0385_+.log
C      2.114243    0.000614   -0.193482
C      0.782398   -0.595519    0.124225
N      0.000969   -0.002308    1.257620
C     -0.534177    0.021744   -0.158664
C     -0.645308    1.389112   -0.764782
C     -1.713155   -0.883267   -0.367929
H      2.870994   -0.357877    0.506144
H      2.109651    1.090472   -0.180021
H      2.409654   -0.320298   -1.194432
H      0.769666   -1.679451    0.187524
H     -0.433036   -0.622258    1.932050
H      0.342044    0.868633    1.649208
H     -1.570406    1.872383   -0.446154
H     -0.680536    1.287089   -1.851231
H      0.192760    2.041263   -0.520057
H     -2.635213   -0.409669   -0.026211
H     -1.595001   -1.843707    0.138525
H     -1.816432   -1.083879   -1.436063
