14
0387_+.log
C      2.363322   -0.000050    0.351529
C      0.940911   -0.429624    0.225509
N      0.000037    0.000134    1.302969
C     -0.146119    0.523477   -0.102884
C     -1.321193    0.121824   -0.802047
C     -2.302040   -0.207937   -1.406132
H      2.846106   -0.102396   -0.622148
H      2.900386   -0.631914    1.060698
H      2.450239    1.044166    0.660694
H      0.755455   -1.459708   -0.059892
H     -0.710729   -0.651586    1.620313
H      0.342936    0.637234    2.015033
H      0.129674    1.572432   -0.167523
H     -3.175830   -0.499242   -1.947447
