13
0389_+.log
C     -2.360030    0.245517    0.352955
C     -0.901281    0.522784    0.224777
N     -0.000016   -0.000104    1.298656
C      0.075463   -0.548887   -0.088075
C      1.288297   -0.260260   -0.797345
N      2.255623    0.000173   -1.358972
H     -2.826016    0.385084   -0.624564
H     -2.825831    0.943980    1.049799
H     -2.558242   -0.778433    0.677891
H     -0.605114    1.523838   -0.072110
H      0.775087    0.577122    1.615407
H     -0.400398   -0.598074    2.016632
H     -0.292113   -1.567837   -0.164003
