18
0399_+.log
C      1.780848    0.000477   -1.701535
C      0.264030   -0.026603   -1.617957
C     -0.260458    0.463384   -0.293587
C     -1.603307    0.045342    0.232191
C     -0.357644   -0.484541    0.854005
N      0.000557   -0.000330    2.210739
H      2.120422   -0.346058   -2.678151
H      2.238154   -0.648280   -0.948705
H      2.170046    1.011738   -1.559399
H     -0.168888    0.598050   -2.404574
H     -0.109842   -1.040317   -1.797469
H      0.034976    1.479728   -0.037119
H     -2.190369    0.774344    0.780593
H     -2.194514   -0.656887   -0.342401
H     -0.078465   -1.523788    0.732628
H     -0.255093    0.983299    2.323030
H      1.006613   -0.076803    2.381614
H     -0.486635   -0.528541    2.939828
