18
0400_+.log
C      2.270666    0.000032   -0.979260
C      0.808501   -0.357609   -1.192106
C     -0.131970    0.373279   -0.277603
C     -1.619187   -0.006035   -0.207663
C     -1.511709    0.015309    1.318542
N     -0.000124   -0.000026    1.210692
H      2.901936   -0.543067   -1.682571
H      2.620496   -0.260809    0.024616
H      2.447563    1.066991   -1.132289
H      0.647748   -1.437761   -1.090274
H      0.501624   -0.107498   -2.213077
H      0.012065    1.454730   -0.328924
H     -1.809369   -1.003879   -0.604513
H     -2.318509    0.697104   -0.652444
H     -1.819733    0.953757    1.775296
H     -1.899316   -0.824369    1.890428
H      0.514716    0.641484    1.811088
H      0.392099   -0.934056    1.328762
