16
0401_+.log
C      1.472392    0.000489   -1.820157
C      1.179276    0.690750   -0.727197
C     -0.110266    0.591173   -0.004616
C     -1.164457   -0.477817   -0.322585
C     -1.306135   -0.726076    1.180973
N      0.000285   -0.000336    1.422598
H      2.416808    0.145013   -2.330210
H      0.784637   -0.709861   -2.265397
H      1.884691    1.421957   -0.339008
H     -0.568607    1.574446    0.129399
H     -0.745447   -1.338184   -0.843161
H     -2.052519   -0.134244   -0.845940
H     -1.294067   -1.747415    1.553284
H     -2.110001   -0.163248    1.651558
H      0.035579    0.653147    2.203472
H      0.794922   -0.636354    1.491124
