14
0407_+.log
C     -2.569534   -0.607061   -0.000036
C     -1.491819   -0.083102    0.000079
C     -0.191040    0.535358    0.000038
C      0.824690    0.070050    1.067451
N      1.901669    0.000419   -0.000013
C      0.824632    0.070025   -1.067419
H     -3.532634   -1.066798   -0.000139
H     -0.282965    1.625178    0.000027
H      0.627149   -0.933537    1.437940
H      1.076793    0.743683    1.882785
H      2.509900    0.818433   -0.000039
H      2.490407   -0.831347   -0.000019
H      1.076691    0.743638   -1.882783
H      0.627071   -0.933571   -1.437874
