18
0410_+.log
C      0.901959   -0.003329   -2.755928
C     -0.096716    0.188768   -1.627749
C      0.583563    0.189509   -0.260043
C     -0.415545    0.389958    0.835949
C     -1.075418   -0.736899    1.512046
N     -0.001358   -0.000546    2.223675
H      0.395801    0.002563   -3.721697
H      1.429544   -0.955682   -2.663959
H      1.647274    0.795323   -2.767044
H     -0.632568    1.133875   -1.763746
H     -0.851561   -0.603892   -1.658821
H      1.112286   -0.759842   -0.109578
H      1.329694    0.989104   -0.216414
H     -0.950313    1.334500    0.842591
H     -0.799477   -1.747925    1.238417
H     -2.056907   -0.613649    1.950981
H     -0.258507    0.594068    3.003557
H      0.897555   -0.458572    2.330577
