16
0411_+.log
C      0.597775    0.002045   -2.550126
C     -0.310715    0.393716   -1.670574
C      0.020604    0.873744   -0.288235
C     -0.563742   -0.061105    0.733278
C      0.192853   -1.200022    1.267132
N      0.000559    0.000778    2.121208
H      0.313003   -0.322082   -3.543525
H      1.659454    0.009456   -2.323354
H     -1.363617    0.394868   -1.941262
H      1.107477    0.930286   -0.164964
H     -0.389606    1.876291   -0.124042
H     -1.645607   -0.144252    0.754478
H     -0.323612   -2.080948    1.625780
H      1.216689   -1.345532    0.945012
H     -0.626658   -0.066463    2.915232
H      0.799769    0.606132    2.276522
