18
0415_+.log
C      1.656913   -0.001539   -1.216868
C      0.155116    0.071131   -0.961990
C     -0.508126   -1.294578   -1.071024
C     -0.109552    0.789342    0.337740
C     -1.291422    0.594456    1.190322
N      0.001859    0.003460    1.610638
H      2.123442    0.985129   -1.180152
H      1.850812   -0.422465   -2.203822
H      2.157077   -0.643459   -0.485400
H     -0.291856    0.728027   -1.718448
H     -0.101256   -2.020251   -0.356802
H     -0.308896   -1.711759   -2.058637
H     -1.593269   -1.256189   -0.958675
H      0.388728    1.748057    0.441900
H     -2.033927   -0.145187    0.922115
H     -1.633552    1.401791    1.824737
H      0.489512    0.404750    2.403097
H      0.099842   -1.002551    1.522892
