18
0426_+.log
C      0.412468    0.000018   -3.169075
C      0.161169    0.472635   -1.783825
C     -0.338437   -0.267387   -0.800411
C     -0.595348    0.246766    0.582374
C      0.316044   -0.442118    1.579232
N      0.000799    0.000134    2.989668
H      1.463607    0.136083   -3.439324
H     -0.169065    0.588344   -3.884855
H      0.153719   -1.051856   -3.295271
H      0.397974    1.517060   -1.580393
H     -0.596987   -1.308208   -0.985750
H     -0.430570    1.329120    0.610964
H     -1.642283    0.064531    0.861626
H      0.196877   -1.526312    1.564037
H      1.365180   -0.202746    1.404092
H     -0.969381   -0.216101    3.228969
H      0.120202    1.010620    3.088373
H      0.603536   -0.455404    3.677719
