18
0435_+.log
C      1.150350    0.000256   -2.086303
C      0.161996   -0.116850   -0.974631
C     -0.925466   -1.112658   -1.206931
C      0.282281    0.658500    0.113208
C     -0.644046    0.684653    1.267920
N     -0.000734   -0.000065    2.473197
H      1.623298   -0.967039   -2.279547
H      1.926696    0.735633   -1.878111
H      0.641166    0.284208   -3.012269
H     -0.492195   -2.096086   -1.410645
H     -1.489720   -0.838711   -2.103138
H     -1.635412   -1.218586   -0.386942
H      1.100679    1.373501    0.149917
H     -1.581042    0.159404    1.094437
H     -0.868186    1.699012    1.602963
H      0.210359   -0.974061    2.248127
H     -0.599022    0.022830    3.302072
H      0.885091    0.452868    2.706250
