20
0439_+.log
C      1.892742   -0.001660   -0.661839
C      0.374920   -0.029697   -0.808207
C     -0.139482   -1.448808   -1.019700
C     -0.314650    0.710850    0.339492
C     -1.815058    0.856442    0.230970
N      0.000903    0.001055    1.645578
H      2.366887   -0.367594   -1.573263
H      2.252012   -0.658842    0.140223
H      2.270986    1.007836   -0.480858
H      0.115564    0.560191   -1.694031
H      0.108012   -2.115303   -0.184625
H      0.338439   -1.885235   -1.897632
H     -1.216494   -1.489019   -1.187809
H      0.148845    1.694846    0.450941
H     -2.325522   -0.109028    0.221481
H     -2.056591    1.366940   -0.701916
H     -2.223994    1.459131    1.045623
H     -0.401430   -0.938663    1.642211
H     -0.382200    0.505000    2.446347
H      1.010879   -0.090938    1.772503
