16
0443_+.log
C      1.795903   -0.000011   -2.400199
C      0.907044   -0.114978   -1.266307
C      0.156644   -0.219361   -0.331452
C     -0.768078   -0.339435    0.772977
C     -1.982885    0.564517    0.682192
N      0.000191   -0.000157    2.053160
H      2.835873    0.051569   -2.070289
H      1.571626    0.899004   -2.977860
H      1.688914   -0.868413   -3.054135
H     -1.076207   -1.380965    0.908762
H     -1.689495    1.612143    0.588273
H     -2.641011    0.440514    1.545679
H     -2.547436    0.297495   -0.210580
H      0.334944    0.965012    2.005274
H      0.817390   -0.606173    2.149484
H     -0.587267   -0.099758    2.883802
