18
0445_+.log
C      1.566136   -0.000918   -2.441388
C      0.134083    0.306981   -2.011115
C     -0.206301   -0.306479   -0.702422
C     -0.655064    0.347946    0.368108
C     -1.011215   -0.340083    1.632218
N     -0.000797    0.000966    2.722503
H      1.764991    0.426013   -3.424884
H      1.740385   -1.077462   -2.505695
H      2.290224    0.420011   -1.740597
H     -0.036918    1.385884   -1.976451
H     -0.556348   -0.099167   -2.760176
H     -0.081303   -1.388700   -0.637583
H     -0.821304    1.422408    0.322815
H     -0.991573   -1.425249    1.532527
H     -1.980702   -0.036008    2.031960
H      0.936394   -0.281140    2.427626
H     -0.216852   -0.458977    3.609728
H      0.024304    1.009367    2.886223
