20
0450_+.log
C      2.066645   -0.005391   -0.672763
C      0.702074    0.661832   -0.747310
C     -0.429201    0.002137    0.041996
C     -1.704200    0.821765   -0.034964
C     -0.668898   -1.448626   -0.333435
N     -0.003293    0.004201    1.513613
H      2.776753    0.545261   -1.290504
H      2.050595   -1.031840   -1.041792
H      2.494338   -0.008820    0.336338
H      0.367065    0.691516   -1.787369
H      0.778998    1.710191   -0.435470
H     -2.051803    0.843317   -1.068242
H     -1.541781    1.857121    0.276569
H     -2.505711    0.389277    0.569667
H      0.217544   -2.070249   -0.192968
H     -0.943615   -1.501831   -1.387543
H     -1.493144   -1.880303    0.240295
H      0.874363   -0.505168    1.633472
H     -0.713331   -0.438526    2.099230
H      0.136194    0.958707    1.850466
