20
0456_+.log
C     -3.029572   -1.064258   -0.000000
C     -1.974764    0.028033    0.000000
C     -0.558586   -0.538229    0.000000
C      0.477926    0.562206    0.000000
N      1.870751    0.000037    0.000000
C      2.953969    1.019395   -0.000000
H     -4.031433   -0.633697   -0.000000
H     -2.943334   -1.701100    0.883745
H     -2.943334   -1.701100   -0.883745
H     -2.105814    0.670533   -0.877186
H     -2.105814    0.670533    0.877186
H     -0.423940   -1.176707    0.881908
H     -0.423940   -1.176707   -0.881908
H      0.401656    1.197091   -0.884851
H      0.401656    1.197091    0.884851
H      1.973631   -0.609371    0.814082
H      1.973631   -0.609371   -0.814082
H      2.851921    1.635359    0.891170
H      2.851921    1.635359   -0.891170
H      3.919892    0.517371   -0.000000
