18
0470_+.log
C      1.064149   -0.001396   -2.644356
C      0.797044   -0.552469   -1.252040
C      0.256942    0.525414   -0.336750
N      0.000644    0.001908    1.025680
C     -0.932282    0.667503    1.956730
C     -1.281981   -0.639624    1.378173
H      1.456531   -0.785229   -3.291865
H      1.797825    0.807241   -2.620131
H      0.150683    0.381985   -3.104306
H      1.724205   -0.957359   -0.831057
H      0.082381   -1.379998   -1.306970
H     -0.691294    0.928913   -0.699822
H      0.958947    1.355542   -0.227616
H      0.818898   -0.415153    1.459497
H     -1.384525    1.563643    1.551912
H     -0.590758    0.725400    2.982091
H     -1.196788   -1.532797    1.983306
H     -1.986212   -0.683603    0.557384
