14
0472_+.log
C      1.455886   -0.000243   -2.292785
C      0.758607    0.406842   -1.408175
C     -0.074318    0.903263   -0.337470
N      0.000053    0.000085    0.840721
C     -1.087194   -0.063142    1.839577
C     -0.853380   -1.201481    0.936132
H      2.074190   -0.353498   -3.088573
H     -1.125256    0.960463   -0.633477
H      0.240112    1.896386   -0.005164
H      0.944330   -0.111213    1.199358
H     -0.754473   -0.115637    2.868221
H     -1.906585    0.614796    1.636606
H     -1.500743   -1.343477    0.080135
H     -0.350783   -2.085576    1.306247
