16
0476_+.log
C     -0.197315    1.124503    1.266565
C      0.085140    0.328872   -0.000000
C     -0.197315    1.124503   -1.266565
N      1.587947   -0.000084    0.000000
C     -0.593121   -0.958833    0.000000
C     -1.153178   -2.018330    0.000000
H     -1.261480    1.355459    1.303657
H      0.352716    2.069057    1.267312
H      0.047902    0.554468    2.164791
H     -1.261480    1.355459   -1.303657
H      0.047903    0.554468   -2.164791
H      0.352716    2.069057   -1.267312
H      2.148629    0.854905   -0.000000
H      1.831444   -0.550644   -0.826287
H      1.831444   -0.550643    0.826287
H     -1.661465   -2.957680    0.000000
