20
0477_+.log
C      1.748212   -0.000126   -0.965773
C      0.373965    0.513690   -0.590282
C     -0.685901    0.187305   -1.618352
N     -0.000965   -0.001068    0.800937
C     -1.071992    0.806181    1.441066
C     -0.326223   -1.450862    0.852084
H      2.496469    0.216184   -0.197920
H      2.071339    0.505025   -1.876804
H      1.750663   -1.071523   -1.174037
H      0.425056    1.596679   -0.448593
H     -0.722844   -0.879258   -1.846122
H     -0.427574    0.704901   -2.543160
H     -1.682037    0.528392   -1.332891
H      0.842660    0.130547    1.360994
H     -1.992305    0.690667    0.873758
H     -0.771196    1.852172    1.456060
H     -1.223813    0.448528    2.458237
H     -1.273868   -1.619420    0.346080
H     -0.411235   -1.750492    1.895352
H      0.464162   -2.021014    0.370289
