18
0478_+.log
C      1.704972    0.004778   -0.097414
C      0.198445   -0.242030   -0.148439
C     -0.537798    0.437921    0.997836
N     -0.003121   -0.003774    2.338775
C     -0.396025    0.271498   -1.429755
C     -1.103425   -0.466251   -2.271081
H      2.182009   -0.442159   -0.969674
H      2.190909   -0.446020    0.775782
H      1.934181    1.074437   -0.111118
H      0.001759   -1.320355   -0.094055
H     -1.601524    0.199677    0.992189
H     -0.418266    1.522666    0.964943
H     -0.116337   -1.012252    2.461442
H     -0.481802    0.462705    3.111266
H      0.995598    0.203182    2.410488
H     -0.199907    1.317866   -1.657912
H     -1.305916   -1.516351   -2.084047
H     -1.498358   -0.048726   -3.189191
