16
0479_+.log
C      1.310833    0.001388   -1.623199
C      0.452315   -0.421176   -0.431522
C      0.964497    0.247023    0.845621
N     -0.000804    0.002185    1.967060
C     -0.957437   -0.081832   -0.593042
C     -2.119270    0.223353   -0.633961
H      0.970115   -0.505215   -2.525194
H      2.355679   -0.266842   -1.455389
H      1.242936    1.077537   -1.790210
H      0.531661   -1.510198   -0.314982
H      1.021355    1.328248    0.715715
H      1.939966   -0.134780    1.145218
H     -0.949180    0.186744    1.596493
H      0.174665    0.603162    2.773030
H      0.022206   -0.969146    2.283014
H     -3.150002    0.483282   -0.736098
