16
0482_+.log
C      1.539533    0.000157   -1.622853
C      1.284780    0.406211   -0.181426
C      0.129787   -0.378519    0.430978
N     -0.000056    0.000236    1.902595
C     -1.158365   -0.140664   -0.187007
C     -2.226303    0.070350   -0.688116
H      2.376919    0.570416   -2.024558
H      0.667636    0.195431   -2.248682
H      1.790338   -1.060019   -1.700241
H      1.056032    1.475859   -0.125805
H      2.183749    0.225054    0.419090
H      0.357985   -1.449393    0.431800
H     -0.216786    0.996747    1.984779
H      0.868984   -0.182798    2.409184
H     -0.759232   -0.519961    2.348123
H     -3.175653    0.250846   -1.143214
