20
0483_+.log
C      0.686069    0.000450   -2.734996
C      0.500207    0.594425   -1.345793
C      0.060329   -0.474861   -0.369209
N      0.000030   -0.000602    1.057848
C     -1.045058    1.033707    1.281310
C     -0.169829   -1.140957    1.997198
H      0.999750    0.772773   -3.436886
H     -0.244020   -0.431017   -3.111344
H      1.448683   -0.781297   -2.737250
H     -0.235170    1.401315   -1.394059
H      1.445066    1.036190   -1.006870
H      0.761123   -1.312403   -0.378310
H     -0.933123   -0.863110   -0.605165
H      0.903369    0.432516    1.259486
H     -2.014806    0.598636    1.043669
H     -0.852539    1.891021    0.641945
H     -1.021681    1.339118    2.325892
H     -1.119868   -1.627107    1.781146
H     -0.168941   -0.766715    3.019453
H      0.647775   -1.845408    1.855715
