18
0506_+.log
C      2.048060   -0.005206    0.277944
C      0.647648   -0.567340    0.386875
N      0.000770    0.006010    1.629813
C     -0.207659   -0.285864   -0.819889
C     -1.703206   -0.225016   -0.809814
C     -0.904385    1.018363   -1.060831
H      2.657675   -0.239983    1.154165
H      2.031090    1.077434    0.128700
H      2.540870   -0.447557   -0.588200
H      0.680796   -1.645236    0.570981
H     -0.063475    1.024256    1.560039
H      0.550183   -0.216176    2.461252
H     -0.943596   -0.362548    1.758286
H      0.228226   -0.749022   -1.698682
H     -2.227871   -0.684541   -1.636757
H     -2.255253   -0.292411    0.123178
H     -0.910855    1.785646   -0.292073
H     -0.875131    1.429035   -2.061054
