18
0508_+.log
C      1.855328    0.004364    0.229027
C      0.422437   -0.443835    0.450399
N     -0.001924   -0.004883    1.831123
C     -0.556363    0.057707   -0.578761
C     -0.379875   -0.546584   -1.935547
C     -1.496925    0.958195   -0.312428
H      2.209260   -0.370915   -0.730048
H      2.526173   -0.389805    0.996369
H      1.927752    1.094706    0.206776
H      0.375871   -1.537458    0.481674
H      0.064084    1.012025    1.916775
H      0.594677   -0.420596    2.547787
H     -0.973009   -0.270140    2.012064
H     -1.177211   -0.227374   -2.604605
H     -0.389483   -1.639676   -1.887842
H      0.571471   -0.251098   -2.386457
H     -2.178507    1.286163   -1.087371
H     -1.652335    1.429719    0.653251
