16
0510_+.log
C      2.264534    0.000240    0.478044
C      0.816789   -0.365171    0.262947
N     -0.000149   -0.000295    1.481189
C      0.170778    0.321008   -0.942612
C     -1.266668    0.110712   -0.952733
C     -2.448766   -0.078977   -0.855415
H      2.842383   -0.295338   -0.398606
H      2.693047   -0.515885    1.339656
H      2.392403    1.078283    0.609604
H      0.692257   -1.446030    0.164786
H      0.155886    0.973071    1.752515
H      0.221895   -0.590834    2.283091
H     -0.998422   -0.105395    1.237174
H      0.397250    1.393761   -0.937557
H      0.628424   -0.088044   -1.847685
H     -3.504011   -0.240559   -0.832426
