20
0511_+.log
C      0.260465    0.238664    2.507245
C     -0.503942    0.529754    1.238568
N      0.166026   -0.000381   -0.000000
C      0.259062   -1.482940    0.000000
C     -0.503942    0.529754   -1.238568
C      0.260465    0.238664   -2.507245
H     -0.227316    0.766821    3.327833
H      1.289301    0.604813    2.456467
H      0.270476   -0.819310    2.768497
H     -0.604241    1.605344    1.085770
H     -1.505469    0.095935    1.252041
H      1.121121    0.364555   -0.000000
H     -0.751479   -1.889608    0.000000
H      0.794032   -1.811555    0.886944
H      0.794032   -1.811555   -0.886944
H     -0.604242    1.605344   -1.085770
H     -1.505469    0.095935   -1.252041
H      1.289301    0.604813   -2.456467
H     -0.227316    0.766821   -3.327833
H      0.270476   -0.819310   -2.768497
