18
0531_+.log
C      1.338086    0.000048    1.557919
N      0.001012   -0.000467    0.953788
C     -0.556154    1.178878    0.254500
C     -0.297783   -0.045180   -0.531226
C      0.879983   -0.115581   -1.456182
C     -1.455439   -0.938216   -0.872865
H      1.267928    0.432044    2.555825
H      2.015103    0.597222    0.953964
H      1.703357   -1.024235    1.617937
H     -0.682685   -0.510233    1.503743
H     -1.568235    1.439986    0.538711
H      0.140964    2.005254    0.187359
H      0.532827    0.142111   -2.458784
H      1.286577   -1.127680   -1.498335
H      1.675571    0.583029   -1.200828
H     -1.870580   -0.627048   -1.833234
H     -2.258937   -0.878435   -0.134746
H     -1.133946   -1.977027   -0.967584
