14
0533_+.log
C      1.027630   -0.000005    2.059110
N     -0.000067   -0.000043    1.010369
C     -0.495955    1.248546    0.402415
C      0.326191    0.328630   -0.418468
C     -0.258429   -0.504777   -1.416316
C     -0.743896   -1.195585   -2.266589
H      1.533625   -0.964363    2.057978
H      0.548294    0.177443    3.021341
H      1.743185    0.794338    1.852776
H     -0.698614   -0.733219    1.098948
H     -1.564786    1.279749    0.235476
H     -0.037994    2.143863    0.803187
H      1.375437    0.580927   -0.539551
H     -1.174087   -1.808270   -3.028715
