13
0535_+.log
C     -0.541523    0.874137    2.063680
N      0.000017    0.000034    1.009522
C     -0.790394   -1.092026    0.411043
C     -0.470690    0.105115   -0.400920
C      0.549709    0.053789   -1.407618
N      1.383428    0.000017   -2.195720
H     -0.004644    1.821427    2.044095
H     -0.408166    0.378473    3.024530
H     -1.601195    1.039442    1.875780
H      0.995578   -0.194633    1.096021
H     -0.242056   -2.008398    0.232079
H     -1.790333   -1.188257    0.814748
H     -1.242361    0.855910   -0.537658
