18
0537_+.log
C      0.924206   -0.000037    1.956932
N      0.000010    0.000076    0.800512
C      0.137122    1.180181   -0.115418
C     -0.625450    0.772680   -1.369339
C     -0.639916   -0.773391   -1.360756
C      0.135573   -1.179622   -0.115742
H      0.746800   -0.890268    2.558423
H      0.750672    0.892940    2.555508
H      1.946614   -0.002579    1.582585
H     -0.956558    0.000277    1.159763
H      1.206695    1.297788   -0.297081
H     -0.235127    2.072884    0.386024
H     -0.139165    1.179416   -2.254753
H     -1.640594    1.170103   -1.352864
H     -1.662124   -1.151092   -1.320246
H     -0.178492   -1.199971   -2.250090
H     -0.228259   -2.074329    0.388328
H      1.204128   -1.291444   -0.307279
