18
0552_+.log
C      1.019334   -0.001443    2.047194
N     -0.000411    0.001206    0.965963
C     -0.623263    1.341827    0.807389
C      0.571164   -0.519046   -0.334837
C     -0.487280   -0.792141   -1.344403
C     -0.549480   -0.175385   -2.515601
H      0.564033    0.356425    2.968964
H      1.833538    0.660143    1.755614
H      1.394186   -1.014346    2.183363
H     -0.741425   -0.647307    1.238829
H      0.160718    2.055984    0.559121
H     -1.099597    1.623695    1.744693
H     -1.356149    1.299286    0.004763
H      1.118662   -1.428577   -0.075150
H      1.284725    0.230379   -0.680614
H     -1.195603   -1.584186   -1.108488
H      0.161363    0.595572   -2.796506
H     -1.303541   -0.435933   -3.248369
