16
0553_+.log
C      0.894377    0.000373    2.053049
N     -0.000585   -0.000535    0.865865
C     -0.812836    1.244244    0.783991
C      0.776325   -0.248453   -0.403748
C     -0.108076   -0.491424   -1.518871
C     -0.835541   -0.710702   -2.445216
H      1.410532   -0.956298    2.114321
H      0.294807    0.159406    2.947297
H      1.615915    0.808633    1.942728
H     -0.651685   -0.783374    0.958752
H     -0.133432    2.092825    0.717090
H     -1.423706    1.324460    1.681175
H     -1.442073    1.193905   -0.102280
H      1.407442    0.629694   -0.564075
H      1.424975   -1.108593   -0.220612
H     -1.473285   -0.908244   -3.278800
