18
0561_+.log
C      1.125306    0.007218    2.764126
N     -0.000421   -0.003709    1.791074
C      0.416662   -0.129205    0.353553
C     -0.786508   -0.132935   -0.571149
C     -0.355930   -0.336957   -1.991804
C     -0.503575    0.568917   -2.945517
H      0.726476    0.103103    3.772498
H      1.774044    0.850311    2.535489
H      1.678370   -0.924712    2.666507
H     -0.550564    0.851210    1.896736
H     -0.637728   -0.771223    2.013633
H      0.992730   -1.053240    0.277952
H      1.082207    0.709737    0.145257
H     -1.331281    0.812994   -0.484840
H     -1.472082   -0.938458   -0.275675
H      0.095141   -1.298949   -2.223914
H     -0.962333    1.534134   -2.754747
H     -0.182011    0.372435   -3.960901
