16
0587_+.log
N      0.000322    0.000176    2.351636
C      0.457546   -0.000242    0.939208
C      0.234057   -1.228456    0.129286
C     -0.569287    0.007093   -0.150620
C     -0.351245    0.851479   -1.349819
C      0.200616    0.426106   -2.475463
H      0.687357   -0.442690    2.968164
H     -0.876798   -0.516235    2.450195
H     -0.162839    0.951459    2.692150
H      1.369273    0.571991    0.825503
H      1.030083   -1.508583   -0.547816
H     -0.277462   -2.069135    0.585141
H     -1.602616   -0.032918    0.193470
H     -0.696829    1.878669   -1.268450
H      0.532123   -0.598166   -2.608494
H      0.328184    1.092272   -3.319627
