18
0590_+.log
N      0.001521    0.000488    2.128401
C      0.407733   -0.000580    0.674644
C     -0.140365   -1.200377   -0.074462
C      0.053961   -0.771502   -1.529539
C     -0.142698    0.760895   -1.541332
C     -0.146263    1.206765   -0.066002
H      0.347423    0.830439    2.614282
H      0.357656   -0.822728    2.618211
H     -1.018082   -0.005024    2.209652
H      1.500653   -0.004995    0.680386
H     -1.209023   -1.313845    0.148167
H      0.358418   -2.139705    0.172479
H     -0.634356   -1.290053   -2.195508
H      1.063583   -1.029102   -1.855767
H      0.656726    1.251880   -2.095815
H     -1.077800    1.045083   -2.022979
H      0.428173    2.117392    0.111525
H     -1.173237    1.396750    0.268417
