18
0603_+.log
N      0.000240    0.000512    2.368348
C      0.883727   -0.000484    1.142665
C      0.087442    0.428129   -0.058383
C      0.745099    0.249977   -1.443250
C     -0.632717   -0.174571   -1.986706
C     -1.075902   -0.470216   -0.539581
H      0.486568   -0.340892    3.199413
H     -0.816138   -0.595108    2.208668
H     -0.343631    0.942109    2.568048
H      1.256030   -1.021281    1.038870
H      1.722989    0.662400    1.360016
H     -0.247320    1.464581    0.063545
H      1.451015   -0.584433   -1.444868
H      1.230431    1.120635   -1.881779
H     -1.178559    0.671181   -2.406027
H     -0.662751   -0.998447   -2.696909
H     -2.093582   -0.197790   -0.254218
H     -0.902316   -1.521839   -0.286012
