13
0608_+.log
N      2.558988   -0.000286   -0.000093
C      1.446001   -0.283220    0.000031
C      0.034021   -0.595382    0.000018
C     -0.827157    0.108470    1.071729
N     -1.822341    0.513757   -0.000003
C     -0.827130    0.108474   -1.071712
H     -0.107607   -1.678042    0.000015
H     -0.364775    0.997831    1.494424
H     -1.273714   -0.503562    1.851268
H     -2.666490   -0.058607   -0.000015
H     -2.106640    1.493098   -0.000005
H     -1.273669   -0.503556   -1.851264
H     -0.364738    0.997835   -1.494393
