18
0610_+.log
N     -0.001309   -0.002958    2.747262
C      0.601774    0.001466    1.363050
C     -0.431356    0.383975    0.325551
C      0.184807    0.397644   -1.047411
C      0.333218   -0.885574   -1.813794
C     -0.669883    0.134559   -2.246933
H      0.682920   -0.256175    3.462787
H     -0.775274   -0.668415    2.804163
H     -0.375585    0.918846    2.982868
H      0.998604   -0.999758    1.192219
H      1.433556    0.706634    1.393658
H     -0.851766    1.370134    0.560461
H     -1.258880   -0.335512    0.342705
H      0.973640    1.132534   -1.176692
H     -0.043519   -1.796824   -1.361983
H      1.223334   -1.022137   -2.413657
H     -0.467892    0.706259   -3.142653
H     -1.718342   -0.084724   -2.084350
