16
0614_+.log
N      0.000387    0.000596    1.664360
C      0.661563   -0.000008    0.297182
C      0.124765   -1.119897   -0.531637
C     -0.903812   -1.904326   -0.248657
C      0.507784    1.375681   -0.287973
C     -0.310804    1.665446   -1.289057
H      0.393704    0.733156    2.257170
H      0.115269   -0.901321    2.133335
H     -0.999877    0.188398    1.562114
H      1.720663   -0.187360    0.507700
H      0.677260   -1.266109   -1.454677
H     -1.511354   -1.824408    0.648957
H     -1.196817   -2.693939   -0.928960
H      1.134478    2.149549    0.149364
H     -0.926621    0.911680   -1.768011
H     -0.378782    2.675822   -1.673710
