12
0616_+.log
N      1.702964   -0.000003   -0.000000
C      0.258319   -0.513524    0.000000
C     -0.379341   -0.058003    1.220268
C     -0.898067    0.312687    2.233652
C     -0.379341   -0.058003   -1.220268
C     -0.898067    0.312687   -2.233652
H      2.199910   -0.318802    0.835759
H      1.697573    1.023594   -0.000000
H      2.199910   -0.318802   -0.835759
H      0.343709   -1.606823    0.000000
H     -1.371536    0.638497    3.134418
H     -1.371536    0.638497   -3.134418
