14
0621_+.log
N     -0.004500    0.017324    2.741362
C      1.070712   -0.017293    1.662693
C      0.459822   -0.133589    0.368567
C     -0.029918   -0.229681   -0.730263
C     -0.600542   -0.380959   -2.016403
C     -0.856118    0.651234   -2.820784
H      0.394147    0.099566    3.679806
H     -0.569295   -0.834055    2.698652
H     -0.634181    0.807111    2.581979
H      1.716124   -0.865748    1.902645
H      1.648032    0.903308    1.776467
H     -0.816227   -1.397651   -2.331464
H     -0.641301    1.671518   -2.526422
H     -1.285088    0.492209   -3.802248
