16
0961_+.log
C     -0.635376   -0.355077    1.242288
C      0.695011    0.364579    1.160759
O      1.391332    0.000015   -0.000000
C      0.695011    0.364579   -1.160759
C     -0.635376   -0.355077   -1.242288
N     -1.424161   -0.050931   -0.000000
H     -0.495345   -1.436402    1.267045
H     -1.224476   -0.041926    2.105047
H      1.307055    0.081559    2.017477
H      0.545552    1.455070    1.199427
H      0.545552    1.455070   -1.199427
H      1.307055    0.081559   -2.017477
H     -1.224476   -0.041926   -2.105047
H     -0.495345   -1.436402   -1.267045
H     -2.299018   -0.577494   -0.000000
H     -1.680051    0.939721   -0.000000
