14
0963_+.log
C      0.989241    0.982013   -1.350438
N      0.032286    0.000275   -1.919768
C      0.492715   -0.109916   -0.499630
C     -0.528118    0.123295    0.557866
C     -0.948302   -0.968627    1.436659
O     -0.000569    0.000499    1.851605
H      0.572490    1.974639   -1.229602
H      1.982998    0.928344   -1.775728
H     -0.921331    0.304284   -2.089626
H      0.373922   -0.674781   -2.595499
H      1.148317   -0.959051   -0.339372
H     -1.191793    0.974936    0.396957
H     -0.554026   -1.969796    1.283209
H     -1.920254   -0.903259    1.915700
