14
0964_+.log
C     -0.664149    0.136984    1.215657
N     -0.937126    0.985644    0.000000
C     -0.664149    0.136984   -1.215657
C      0.452895   -0.741223   -0.728719
O      1.418624    0.000403    0.000000
C      0.452895   -0.741223    0.728719
H     -1.559782   -0.437538    1.456378
H     -0.404371    0.787541    2.050802
H     -0.268551    1.757346    0.000000
H     -1.876089    1.382154    0.000000
H     -0.404371    0.787541   -2.050802
H     -1.559782   -0.437538   -1.456378
H      0.805752   -1.565508   -1.337169
H      0.805752   -1.565508    1.337169
