16
0981_+.log
C     -1.709180   -0.072099   -1.583079
C     -0.506195   -0.466029   -0.794617
N      0.831427   -0.000137   -1.299948
C      0.283870    0.489998   -0.006141
C      0.998795    0.054203    1.243705
O      0.000551    0.000165    2.217268
H     -2.588973   -0.192175   -0.947772
H     -1.836061   -0.710474   -2.458458
H     -1.667203    0.972688   -1.899033
H     -0.450681   -1.500127   -0.468275
H      1.612840   -0.646578   -1.276207
H      0.844144    0.638467   -2.087739
H     -0.014895    1.532196   -0.051706
H      1.792160    0.771146    1.485510
H      1.468584   -0.929330    1.076960
H      0.392525   -0.010387    3.095347
