16
0983_+.log
C     -1.796497   -0.369422   -1.034195
C     -0.434121   -0.517566   -0.432473
N      0.734806    0.000143   -1.282467
C      1.405023    0.524651   -0.032208
C      0.051347    0.419104    0.701929
O     -0.000005    0.000063    2.004396
H     -1.933497   -1.009828   -1.907856
H     -2.005683    0.667248   -1.310588
H     -2.537026   -0.666680   -0.288229
H     -0.194126   -1.557132   -0.193487
H      0.438893    0.749306   -1.908026
H      1.249943   -0.686074   -1.831430
H      1.875251    1.496151   -0.166334
H      2.135797   -0.208764    0.308321
H     -0.485170    1.371065    0.661703
H      0.470006   -0.830729    2.133105
