14
0985_+.log
C     -1.845584    0.133061   -0.762738
C     -0.522159   -0.508197   -0.456814
N      0.668612    0.000015   -1.297710
C      1.462233    0.373412   -0.060321
C      0.253485   -0.042243    0.784635
O      0.000048   -0.000056    1.932798
H     -2.226219   -0.175262   -1.737963
H     -1.792811    1.223276   -0.714832
H     -2.560035   -0.195591   -0.005161
H     -0.555307   -1.598410   -0.531012
H      0.422639    0.800017   -1.880190
H      1.106170   -0.702846   -1.891420
H      1.737420    1.427590   -0.039220
H      2.346460   -0.253241    0.057559
