16
0989_+.log
C     -2.326881   -0.087791    0.590826
C     -0.930898    0.429272    0.479694
O     -0.000354    0.001241    1.466856
C      0.207348   -0.443816    0.153320
C      1.465631    0.103849   -0.455877
N      1.412211    0.000493   -1.958805
H     -2.873776    0.075218   -0.340696
H     -2.855928    0.442001    1.385135
H     -2.334040   -1.152826    0.826288
H     -0.829015    1.487783    0.233736
H      0.025432   -1.507994   -0.009573
H      2.350637   -0.447534   -0.133258
H      1.590527    1.156941   -0.204348
H      1.307169   -0.971390   -2.259350
H      2.261954    0.367898   -2.392464
H      0.615415    0.523586   -2.329516
