16
0992_+.log
C     -1.757712    0.963557    0.010715
C     -0.564390    0.074428    0.155005
O      0.000278    0.000486    1.434631
C     -0.346688   -1.136180   -0.703528
C      0.529936    0.066847   -0.873280
N      1.884101   -0.000181   -0.292155
H     -2.057895    1.048375   -1.034979
H     -1.540132    1.960866    0.396394
H     -2.605468    0.554268    0.565238
H     -0.588143   -0.469033    2.035773
H      0.076006   -2.012467   -0.223948
H     -1.037401   -1.346728   -1.510106
H      0.476836    0.675358   -1.765527
H      1.745900   -0.194021    0.716542
H      2.373132    0.892851   -0.374527
H      2.466027   -0.726864   -0.711896
