16
0993_+.log
C     -1.922198    0.027103    0.038621
C     -0.429713   -0.006091    0.199980
O      0.000153   -0.000145    1.534290
C      0.384496   -1.050883   -0.609938
N      1.456450    0.000011   -0.811000
C      0.426156    1.066094   -0.499834
H     -2.373852   -0.865090    0.480996
H     -2.215150    0.062516   -1.012061
H     -2.332928    0.902135    0.545496
H     -0.549657   -0.586234    2.065397
H     -0.044593   -1.299937   -1.579253
H      0.742516   -1.937941   -0.092311
H      1.919317    0.036723   -1.717649
H      2.164208   -0.049374   -0.078302
H      0.811894    1.875653    0.115116
H      0.004267    1.430938   -1.434038
