18
1012_+.log
C     -0.870534    1.325384   -0.893014
C     -0.726937   -0.165737   -0.605862
C      0.633284   -0.711783   -1.021641
N      1.732158    0.000727   -0.282588
C     -1.046628   -0.518470    0.840715
O     -0.001075   -0.000013    1.668915
H     -1.905127    1.638852   -0.748940
H     -0.601513    1.562472   -1.925399
H     -0.265255    1.940225   -0.221136
H     -1.452321   -0.708367   -1.221390
H      0.813804   -0.583874   -2.089102
H      0.731710   -1.769897   -0.774801
H      1.834069    0.961428   -0.609451
H      2.631660   -0.467358   -0.382388
H      1.433634    0.032148    0.717696
H     -2.005920   -0.076611    1.124110
H     -1.115033   -1.604981    0.963149
H     -0.210580   -0.124987    2.598703
