18
1013_+.log
C     -2.081139   -0.399312   -0.320595
C     -0.821443   -0.082192   -1.111616
C      0.458176   -0.249853   -0.311059
N      1.623723   -0.000560   -1.246327
C      0.619748    0.664502    0.900355
O     -0.015762    0.016679    1.959277
H     -2.951331   -0.301625   -0.969817
H     -2.209764    0.274484    0.525418
H     -2.060142   -1.419217    0.066936
H     -0.870476    0.947270   -1.489700
H     -0.776821   -0.740887   -1.987828
H      0.575560   -1.281794    0.031019
H      1.619714    0.964817   -1.584595
H      1.562588   -0.608776   -2.065332
H      2.521387   -0.169852   -0.788048
H      1.691590    0.817850    1.111732
H      0.180556    1.649089    0.683679
H     -0.057029    0.596063    2.725744
