16
1029_+.log
C     -0.453675    1.484444   -1.400663
C     -0.103663    0.079816   -0.957421
N      1.380077    0.000616   -0.691966
C     -0.783132   -0.287879    0.350836
C     -0.334476   -1.365846    1.221212
O      0.002061   -0.001175    1.498872
H     -1.526051    1.545029   -1.589330
H      0.055146    1.751683   -2.329660
H     -0.208596    2.218955   -0.629078
H     -0.339032   -0.646610   -1.737487
H      1.479246    0.194096    0.325142
H      1.897709    0.695237   -1.229800
H      1.775349   -0.917674   -0.891267
H     -1.819864    0.032314    0.409744
H      0.500080   -2.006200    0.943170
H     -1.037409   -1.810805    1.917008
