18
1030_+.log
C     -0.100534   -1.856590   -1.942272
C     -0.446158   -0.499102   -1.380966
N      0.643140    0.000212   -0.483542
C      0.400371    1.323136    0.172051
C     -0.523315    1.119591    1.354737
O     -0.005395   -0.002752    2.032833
H     -0.909845   -2.190704   -2.592286
H      0.017652   -2.603023   -1.153618
H      0.811319   -1.828816   -2.543592
H     -1.356953   -0.528593   -0.783187
H     -0.572093    0.249481   -2.164737
H      1.517332    0.026704   -1.008468
H      0.771589   -0.663136    0.293283
H     -0.006816    2.015343   -0.564108
H      1.370901    1.684934    0.513474
H     -1.557960    0.953424    1.032938
H     -0.501254    2.026718    1.966530
H     -0.487476   -0.167689    2.847858
