14
1038_+.log
C     -2.056221   -0.622753    0.421296
C     -0.620733   -0.264924    0.490331
O      0.000058   -0.000941    1.487791
C      0.154663   -0.194608   -0.823380
C      0.806624    1.099028   -1.130280
N      1.584987    0.000147   -0.539404
H     -2.513223   -0.537554    1.404608
H     -2.158664   -1.649325    0.052806
H     -2.574394    0.021532   -0.296209
H     -0.077449   -0.873175   -1.635297
H      0.651798    1.932458   -0.455771
H      1.060445    1.335254   -2.155544
H      2.286049   -0.479822   -1.093150
H      1.739099    0.060133    0.476905
