16
1039_+.log
C     -1.458736   -1.488645    0.186577
C     -0.887066   -0.097655    0.360119
O      0.000304    0.000659    1.456257
C     -0.061355    0.335013   -0.830719
C      0.932640    1.411471   -0.719471
N      1.382153   -0.000215   -0.709231
H     -2.045166   -1.765227    1.064840
H     -0.667891   -2.231761    0.058958
H     -2.126413   -1.531213   -0.676585
H     -1.700512    0.634181    0.454657
H     -0.437234   -0.269172    2.268810
H     -0.472235    0.125208   -1.811238
H      1.220874    1.962629   -1.604777
H      1.064883    1.903600    0.235015
H      1.631659   -0.368934    0.208692
H      1.890889   -0.370879   -1.502846
