16
1050_+.log
C      1.288831   -1.193626   -1.305151
N      0.632729   -0.000280   -0.755784
C     -0.539203    0.620505   -1.406970
C     -0.703610   -0.068915   -0.115492
C     -0.829815    0.672058    1.180411
O      0.000630    0.000892    2.086592
H      1.785351   -1.721808   -0.492490
H      2.011073   -0.886461   -2.060411
H      0.533467   -1.834657   -1.756323
H      1.268861    0.645844   -0.297097
H     -0.520835    1.702961   -1.435746
H     -0.847263    0.125629   -2.319027
H     -1.099072   -1.078742   -0.126380
H     -1.886304    0.661501    1.473709
H     -0.533290    1.723254    1.046584
H     -0.169980    0.303364    2.983558
