14
1053_+.log
C     -2.114738   -0.733279    0.000000
N     -1.048862    0.294610   -0.000000
C      0.005370    0.188024    1.092806
C      1.072362    0.097051   -0.000000
O      2.244549   -0.001084    0.000000
C      0.005370    0.188024   -1.092806
H     -2.726531   -0.609850    0.892734
H     -1.649850   -1.718362    0.000000
H     -2.726531   -0.609850   -0.892734
H     -1.479886    1.217934    0.000000
H     -0.131558   -0.710941    1.695199
H      0.041856    1.072557    1.729620
H      0.041856    1.072557   -1.729620
H     -0.131558   -0.710941   -1.695199
