16
1062_+.log
C     -0.290879   -0.742654   -2.182894
N      0.207028    0.000125   -0.990346
C     -0.198681    1.434477   -1.032116
C     -0.218456   -0.650377    0.283532
C      0.517634   -0.084014    1.489177
O     -0.001271    0.000659    2.555026
H      0.084228   -1.763980   -2.148846
H      0.062367   -0.242532   -3.083089
H     -1.379369   -0.742347   -2.159084
H      1.229418   -0.028088   -1.021809
H     -1.286481    1.482942   -1.022226
H      0.188860    1.885690   -1.943630
H      0.202744    1.950482   -0.161026
H     -1.294641   -0.522774    0.400903
H      0.008046   -1.718367    0.210337
H      1.579864    0.206288    1.322215
