16
1065_+.log
C      1.508296    1.264090   -1.010998
N      0.920744    0.000247   -0.493893
C     -0.574589   -0.027751   -0.401103
C     -1.166223   -1.274670   -1.034397
C     -0.885118    0.040752    1.087649
O      0.000685    0.000697    1.895522
H      2.593711    1.183274   -0.986349
H      1.186775    2.083171   -0.370575
H      1.167575    1.425898   -2.031877
H      1.251663   -0.790865   -1.045256
H      1.225994   -0.143250    0.491247
H     -0.962587    0.870425   -0.889835
H     -0.777417   -2.183166   -0.567661
H     -0.964189   -1.302923   -2.106708
H     -2.249962   -1.271692   -0.906568
H     -1.947744    0.104685    1.370719
