18
1066_+.log
C      1.889866    0.733592   -1.631795
N      0.956920   -0.001116   -0.742391
C     -0.362176    0.665681   -0.519557
C     -1.034208    0.025008    0.686730
C     -1.606954   -1.352905    0.420773
O     -0.001961    0.009232    1.659462
H      2.811600    0.162907   -1.730493
H      2.099856    1.704705   -1.188189
H      1.423707    0.862749   -2.606827
H      0.805281   -0.943095   -1.104392
H      1.351033   -0.119284    0.201860
H     -0.143275    1.714397   -0.317550
H     -0.957779    0.586635   -1.428310
H     -1.840284    0.702412    0.992266
H     -0.841209   -2.070207    0.110047
H     -2.382544   -1.311487   -0.347008
H     -2.068056   -1.750763    1.326802
H     -0.321971   -0.348825    2.492582
