16
1067_+.log
C      0.890320    0.926257   -2.416722
N      0.427606    0.001452   -1.340587
C      0.234793    0.664745   -0.013823
C     -0.326356   -0.248443    1.087873
C     -1.283544   -1.337100    0.705807
O     -0.000571    0.001451    2.210147
H      1.020705    0.361184   -3.338116
H      1.835175    1.369580   -2.109163
H      0.139689    1.702252   -2.552585
H      1.105847   -0.756748   -1.239774
H     -0.447498   -0.441982   -1.628111
H     -0.459683    1.495179   -0.166790
H      1.194544    1.065324    0.309851
H     -1.689984   -1.787581    1.609475
H     -0.784731   -2.126252    0.130884
H     -2.108682   -0.945304    0.100319
