16
1068_+.log
C     -2.377940   -1.572994    0.000000
N     -1.747819   -0.222558    0.000000
C     -0.249872   -0.251269    0.000000
C      0.341557    1.139526   -0.000000
C      1.855059    1.049380   -0.000000
O      2.427878   -0.000902   -0.000000
H     -3.460704   -1.461376   -0.000000
H     -2.054190   -2.106488    0.891310
H     -2.054190   -2.106488   -0.891310
H     -2.073120    0.301349    0.815045
H     -2.073120    0.301349   -0.815045
H      0.059591   -0.816565   -0.879236
H      0.059591   -0.816565    0.879236
H      0.039652    1.722436    0.879167
H      0.039652    1.722436   -0.879167
H      2.391638    2.015594    0.000000
