16
1076_+.log
C     -0.378550   -0.260347    2.427331
O     -0.000014   -0.000211    1.081140
C     -0.832026   -0.603407    0.136999
C     -0.305422   -0.211816   -1.216703
C      0.237627    1.133613   -1.453768
N      1.166211   -0.000183   -1.236724
H      0.342171    0.249723    3.062459
H     -0.354942   -1.334498    2.634909
H     -1.380802    0.129855    2.626478
H     -0.829281   -1.697709    0.235749
H     -1.872158   -0.258767    0.218016
H     -0.676457   -0.767641   -2.069722
H      0.242366    1.845914   -0.639342
H      0.251327    1.532447   -2.459359
H      1.587388   -0.044704   -0.308532
H      1.723319   -0.347647   -2.008287
