16
1080_+.log
C     -0.914822   -0.510030    1.938935
O     -0.000184    0.001361    0.972773
C     -0.430621    0.102494   -0.304380
C     -1.605479   -0.254327   -0.807659
C      0.655631    0.728787   -1.115937
N      1.940117   -0.000087   -0.815018
H     -0.387348   -0.505443    2.889218
H     -1.212744   -1.529428    1.681928
H     -1.795133    0.133216    2.000081
H     -1.800349   -0.123958   -1.863135
H     -2.403747   -0.654361   -0.198784
H      0.464504    0.675550   -2.184857
H      0.821735    1.766567   -0.818996
H      1.934054   -0.939496   -1.217315
H      1.999530   -0.099780    0.205415
H      2.763896    0.495597   -1.157478
