18
1084_+.log
C     -0.441845   -0.391087    2.414560
O      0.000450   -0.000435    1.122014
C     -0.569544   -0.737555    0.076682
C     -0.034794   -0.125718   -1.210784
C     -0.598177    1.243126   -1.519143
N      1.458036    0.000467   -0.995828
H      0.081587    0.235983    3.133033
H     -0.206016   -1.442962    2.605245
H     -1.519919   -0.235367    2.513595
H     -0.300140   -1.801943    0.153049
H     -1.664059   -0.670846    0.074457
H     -0.180494   -0.809633   -2.048484
H     -0.455390    1.929785   -0.682552
H     -1.669535    1.154001   -1.701610
H     -0.150892    1.671008   -2.419547
H      1.569375    0.357066   -0.034099
H      1.890349    0.642317   -1.660032
H      1.935481   -0.899870   -1.054076
