16
1098_+.log
N      2.082961    0.000799   -0.469324
C      0.775103   -0.020423   -1.203051
C     -0.242405    0.567935   -0.241727
C     -1.669712    0.018561   -0.286128
C     -1.360255   -0.525492    1.113708
O     -0.000767   -0.001084    1.050708
H      2.781249   -0.619787   -0.878140
H      1.855775   -0.306720    0.493164
H      2.480440    0.940215   -0.415959
H      0.874031    0.530521   -2.137919
H      0.556905   -1.068076   -1.412915
H     -0.162070    1.661340   -0.215468
H     -2.448161    0.775769   -0.332269
H     -1.853974   -0.734477   -1.051255
H     -1.908782   -0.061557    1.933320
H     -1.362344   -1.609511    1.231163
