16
1109_+.log
N      1.589869    0.000059    0.112667
C      0.173223   -0.488508   -0.142382
C     -0.689267    0.189973    0.904497
O      0.000230    0.000243    2.121000
C     -0.188879   -0.283635   -1.575403
C     -1.163498    0.502753   -2.008895
H      2.292259   -0.603908   -0.313462
H      1.712540    0.018811    1.136088
H      1.717308    0.945887   -0.252594
H      0.216003   -1.556459    0.093097
H     -1.673600   -0.286902    0.904260
H     -0.816041    1.256598    0.681073
H     -0.497692    0.359834    2.860618
H      0.384950   -0.868776   -2.290507
H     -1.791446    1.089007   -1.347573
H     -1.383426    0.573810   -3.067087
