16
1111_+.log
N      2.021163   -0.000430   -0.039363
C      0.922911   -0.982688   -0.318843
C     -0.372246   -0.402222    0.239603
O     -0.000060    0.000254    1.549922
C     -0.931213    0.730404   -0.563119
C     -2.098586    0.672010   -1.187151
H      2.948360   -0.420783   -0.095513
H      1.848086    0.345766    0.917466
H      1.991815    0.796700   -0.676154
H      1.185837   -1.897514    0.212011
H      0.872737   -1.171324   -1.389228
H     -1.098255   -1.223007    0.267890
H     -0.742822    0.424890    1.991162
H     -0.350114    1.652092   -0.590076
H     -2.718825   -0.218378   -1.152230
H     -2.480638    1.512181   -1.754061
