16
1113_+.log
N      2.110357   -0.001842   -0.891214
C      0.988475   -0.941156   -1.226680
C     -0.289663   -0.343490   -0.686234
O      0.000179    0.001050    0.643675
C     -1.017371    0.543644    1.389732
C     -2.254623    0.770266    0.985387
H      3.029302   -0.431813   -1.000454
H      1.974173    0.278932    0.089619
H      2.082998    0.844173   -1.463522
H      0.961135   -1.089462   -2.305092
H      1.217833   -1.884505   -0.731245
H     -1.090320   -1.087835   -0.750019
H     -0.600074    0.540812   -1.259412
H     -0.661852    0.764322    2.388010
H     -2.624054    0.546126   -0.006576
H     -2.954489    1.201512    1.687347
