14
1132_+.log
O      0.000080    0.001644    2.084230
C     -1.008068    0.235188    1.484028
C     -1.018936    0.414754   -0.024174
C      0.385495    0.321740   -0.533211
C      1.000424   -0.953227   -0.915831
N      0.586153    0.000075   -1.980000
H     -1.988360    0.333591    1.984023
H     -1.469144    1.384294   -0.263242
H     -1.671401   -0.353586   -0.457139
H      1.064478    1.098601   -0.200166
H      0.407581   -1.859073   -0.889686
H      2.071343   -1.081563   -0.828877
H     -0.226688   -0.233024   -2.540302
H      1.309276    0.493672   -2.492355
