16
1143_+.log
O     -0.000350   -0.000454    2.634385
C      0.238257    0.625647    1.411022
C      0.160895   -0.497314    0.393356
N      0.381587   -0.000022   -0.976470
C     -0.111622   -0.743857   -2.155207
C     -0.727280    0.541522   -1.792460
H      0.068552    0.634883    3.352491
H     -0.512635    1.395325    1.181038
H      1.230968    1.098702    1.370799
H      0.916375   -1.257142    0.600780
H     -0.822752   -0.969130    0.421717
H      1.276259    0.462362   -1.108705
H     -0.621577   -1.665010   -1.904727
H      0.582208   -0.789940   -2.984602
H     -1.680845    0.543367   -1.280026
H     -0.485415    1.430930   -2.359756
