17
1517_+.log
C     -0.500094    1.341089   -0.000000
C     -0.592191    0.197970    1.027636
C     -1.568517   -0.459887    0.000000
C     -0.592191    0.197970   -1.027636
C      0.632341   -0.668230   -0.735172
N      1.751758   -0.000079    0.000000
C      0.632341   -0.668230    0.735172
H     -1.416348    1.927820    0.000000
H      0.334311    2.049431    0.000000
H     -0.844546    0.362130    2.071300
H     -1.657080   -1.547485    0.000000
H     -2.553139    0.004544    0.000000
H     -0.844546    0.362130   -2.071300
H      0.936775   -1.495299   -1.362214
H      1.811306    1.013007    0.000000
H      2.649785   -0.471749   -0.000000
H      0.936775   -1.495299    1.362214
