17
1519_+.log
C      1.477268   -0.000471    1.053839
C      0.708760    0.937145    0.216062
C      0.081792    0.489859   -1.098907
C     -1.412854    0.419870   -0.654415
C     -0.879036   -0.765184    0.181018
C      0.056729   -1.048372   -0.994634
N     -0.000229   -0.000029    1.146076
H      1.951601    0.395955    1.943998
H      1.925363   -0.897843    0.654265
H      0.692278    1.987099    0.484052
H      0.407494    1.016824   -1.990809
H     -2.076376    0.096440   -1.453653
H     -1.841505    1.271096   -0.122092
H     -1.484016   -1.509864    0.691419
H      0.969798   -1.624104   -0.857341
H     -0.511869   -1.482550   -1.814158
H     -0.428761    0.356407    1.992877
