17
1521_+.log
C      1.040440    0.000249   -1.662001
C     -0.420148   -0.124527   -1.350325
C     -1.118769    0.943070   -0.424321
C     -0.782879    0.156397    0.835405
N      0.000088    0.000233    2.131157
C      0.635652   -0.112607    0.746488
C      0.656090   -0.925720   -0.553529
H      1.384533   -0.464080   -2.579218
H      1.554685    0.926669   -1.427975
H     -1.054969   -0.632236   -2.065374
H     -2.184254    1.033555   -0.624992
H     -0.644582    1.922071   -0.481384
H     -1.337366   -0.779201    0.812035
H     -0.275191   -0.802795    2.691901
H      0.379772    0.766928    2.682758
H      1.255580    0.778031    0.690762
H      0.789558   -1.996151   -0.617393
