19
1541_+.log
C      0.879942    0.000109   -1.897439
C      0.427853    1.280324   -1.266539
C      0.237185   -0.032888   -0.554410
C     -1.136704   -0.604683   -0.287785
C     -1.378799   -0.316417    1.195479
N      0.000034   -0.000137    1.764528
C      1.010195   -0.331609    0.692275
H      0.307735   -0.390203   -2.729669
H      1.944738   -0.188154   -1.961100
H     -0.451496    1.764778   -1.672686
H      1.190684    1.960375   -0.905135
H     -1.909718   -0.154692   -0.909685
H     -1.146753   -1.682290   -0.469646
H     -1.786549   -1.161126    1.747171
H     -2.008966    0.553422    1.370070
H      0.178185   -0.503356    2.632499
H      0.056853    0.994197    1.980218
H      1.913152    0.258013    0.845101
H      1.244306   -1.393902    0.793477
