19
1543_+.log
C     -0.082978   -1.532844   -0.000000
C      0.388536   -0.518326    1.047859
C     -0.650848    0.560341    1.286404
C     -0.920036    1.359336    0.000000
C     -0.650848    0.560341   -1.286404
C      0.388536   -0.518326   -1.047859
N      1.383352    0.000360   -0.000000
H     -1.143108   -1.775483    0.000000
H      0.506706   -2.450479    0.000000
H      0.881445   -0.873499    1.951001
H     -0.333991    1.231956    2.087279
H     -1.550229    0.053404    1.644359
H     -0.281975    2.248630    0.000000
H     -1.937598    1.748501   -0.000000
H     -1.550229    0.053404   -1.644359
H     -0.333991    1.231956   -2.087279
H      0.881445   -0.873499   -1.951001
H      2.253247   -0.529160   -0.000000
H      1.595427    0.997685   -0.000000
