19
1550_+.log
C      1.341724    0.000285    0.487593
C      0.682009   -0.898509   -0.574407
C     -0.244259   -1.351177    0.562848
N     -0.000086   -0.000009    1.193318
C     -0.939033    1.019179    0.619679
C     -0.659961    1.207998   -0.871065
C     -0.120397   -0.055384   -1.561047
H      2.063026   -0.523646    1.112872
H      1.703709    0.992602    0.227716
H      1.299911   -1.658027   -1.045971
H     -1.295844   -1.545687    0.355418
H      0.179938   -2.125527    1.200934
H      0.007862    0.039697    2.210920
H     -0.795245    1.948323    1.172527
H     -1.945888    0.650891    0.823637
H      0.064272    2.015996   -0.987703
H     -1.572931    1.558436   -1.353277
H     -0.929311   -0.667177   -1.968150
H      0.504605    0.238479   -2.406052
