19
1551_+.log
C      1.418656   -0.001098    1.273317
N      0.000134    0.001060    1.876731
C     -0.478797   -0.336856    0.452636
C     -1.594333    0.107522   -0.444597
C     -0.800851   -0.008216   -1.806218
C      0.745901   -0.103809   -1.510708
C      0.748594    0.344380   -0.068348
H      1.811400   -1.014302    1.349809
H      2.080598    0.716279    1.752702
H     -0.204456   -0.662601    2.622572
H     -0.274323    0.936158    2.178200
H     -0.346727   -1.421770    0.404044
H     -2.483726   -0.519926   -0.426197
H     -1.888253    1.141092   -0.254321
H     -1.019594    0.862121   -2.423479
H     -1.133622   -0.884138   -2.361498
H      1.098427   -1.131887   -1.614479
H      1.328303    0.523405   -2.182671
H      0.562721    1.426765   -0.043268
