19
1561_+.log
C      1.325575    0.000293    1.500378
N     -0.001645    0.002823    2.160395
C      0.242565    0.801611    0.912084
C     -0.517835    0.396209   -0.309045
C      0.158724    0.633505   -1.678484
C     -0.517566   -0.660382   -2.167672
C     -0.693623   -1.089247   -0.695715
H      1.587951   -0.953131    1.060880
H      2.102265    0.487565    2.075126
H     -0.105214    0.477309    3.050097
H     -0.571628   -0.830923    2.059453
H      0.270151    1.864787    1.131044
H     -1.491634    0.893011   -0.286221
H      1.243377    0.517553   -1.613135
H     -0.066876    1.566534   -2.192529
H     -1.479106   -0.457773   -2.640023
H      0.060119   -1.318871   -2.813010
H     -1.627438   -1.576969   -0.413201
H      0.144889   -1.717066   -0.379314
