19
1562_+.log
C      1.186551   -0.002774    1.948954
C      0.262460   -1.147649    1.957626
N      0.000664    0.002433    1.067039
C      0.121657   -0.104081   -0.401656
C     -1.135329   -0.475455   -1.192350
C     -0.646492    0.514508   -2.271828
C      0.232839    1.196622   -1.201057
H      2.124062   -0.083302    1.414520
H      1.157154    0.714536    2.758901
H     -0.438972   -1.262923    2.773803
H      0.534810   -2.052260    1.429327
H     -0.754247    0.613625    1.364573
H      0.953127   -0.785629   -0.593636
H     -2.039484   -0.103366   -0.702591
H     -1.278709   -1.521745   -1.457156
H     -0.044887    0.018377   -3.033591
H     -1.399922    1.128246   -2.759886
H      1.228831    1.542446   -1.473381
H     -0.308047    2.012662   -0.713800
