19
1563_+.log
C      1.417910    0.000044    1.418718
N     -0.000084    0.000174    1.853128
C      0.374330    0.007399    0.385541
C     -0.024364    1.243794   -0.409376
C     -0.603791    0.682033   -1.716115
C     -1.098224   -0.714162   -1.345611
C     -0.005263   -1.221811   -0.409461
H      1.946435    0.914968    1.657492
H      1.943775   -0.919567    1.645783
H     -0.370331    0.851515    2.261177
H     -0.374864   -0.852673    2.253589
H     -0.785266    1.811307    0.134874
H      0.825409    1.909616   -0.566194
H      0.185028    0.608544   -2.468940
H     -1.384588    1.321646   -2.126015
H     -2.055744   -0.655933   -0.818479
H     -1.240518   -1.362397   -2.209593
H     -0.286601   -2.074986    0.213059
H      0.874895   -1.522042   -0.987140
