17
1567_+.log
C      1.590090   -0.000003    0.311548
C      0.671188   -0.010472    1.544610
C     -0.671188    0.010472    1.544610
C     -1.590090    0.000003    0.311548
C     -0.569935   -0.448112   -0.680312
N      0.000000   -0.000000   -2.006416
C      0.569935    0.448112   -0.680312
H      2.424183    0.690283    0.443873
H      1.996534   -0.996581    0.117067
H      1.179498   -0.002011    2.503108
H     -1.179498    0.002011    2.503108
H     -1.996534    0.996581    0.117067
H     -2.424183   -0.690283    0.443873
H     -0.298102   -1.494001   -0.573829
H      0.437120   -0.728460   -2.562438
H     -0.437120    0.728460   -2.562438
H      0.298102    1.494001   -0.573830
