19
1568_+.log
C      1.341653   -0.000187    0.739283
C      1.341324    0.989813   -0.419991
C      0.060072    1.092968   -1.197063
C     -0.930120    0.204909   -1.262287
C     -0.934021   -1.141106   -0.589187
C     -0.943126   -1.063064    0.929327
N      0.000597   -0.000051    1.419907
H      1.538893   -1.024291    0.428537
H      2.088839    0.275151    1.483094
H      1.585886    1.984764   -0.033432
H      2.170625    0.734903   -1.089066
H     -0.048625    2.014000   -1.761524
H     -1.791954    0.450943   -1.873274
H     -1.818967   -1.707794   -0.881875
H     -0.081243   -1.735373   -0.928002
H     -1.927226   -0.797868    1.319672
H     -0.630663   -2.004629    1.382554
H      0.106849   -0.085802    2.430219
H     -0.438697    0.905842    1.235335
