19
1595_+.log
C      1.979237   -0.001091   -0.259991
C      0.715899   -0.313438   -0.998624
C     -0.345385    0.746224   -1.194030
C     -1.650838    0.322634   -0.516201
C     -1.454058   -0.083998    0.951365
N      0.000486    0.000306    1.346899
C      0.883748   -0.745732    0.423430
H      2.165673    1.030351    0.023001
H      2.873739   -0.565281   -0.489002
H      0.754258   -1.101320   -1.741674
H     -0.525590    0.911765   -2.256026
H     -0.002466    1.711221   -0.804249
H     -2.381320    1.130531   -0.572858
H     -2.075552   -0.522822   -1.059563
H     -1.749836   -1.115933    1.138229
H     -2.000566    0.556771    1.644118
H      0.286720    0.979903    1.363876
H      0.118904   -0.341518    2.301207
H      0.988125   -1.783898    0.708925
