19
1597_+.log
C      1.430354    0.000361   -0.585946
C      1.399376    0.071689    0.924817
N      0.000018   -0.000696    1.476330
C     -0.908859   -1.001927    0.818798
C     -1.548770   -0.413189   -0.400469
C     -0.987333    0.432465   -1.260867
C      0.434883    0.905255   -1.301747
H      2.448634    0.265035   -0.881471
H      1.281825   -1.030763   -0.917416
H      1.954442   -0.754032    1.371703
H      1.819437    1.008131    1.297340
H     -0.448644    0.911899    1.370228
H      0.055262   -0.184028    2.478992
H     -1.673135   -1.259620    1.552684
H     -0.318856   -1.901683    0.628367
H     -2.586190   -0.694382   -0.543454
H     -1.624260    0.815039   -2.053048
H      0.504319    1.940722   -0.940413
H      0.725310    0.968205   -2.354028
