17
1600_+.log
C      1.368867   -1.432088   -0.000000
N      1.757720    0.000272    0.000000
C      0.307148   -0.420308   -0.000000
C     -0.487035   -0.021605    1.227984
C     -1.443645    0.989907    0.663696
C     -1.443645    0.989907   -0.663696
C     -0.487035   -0.021605   -1.227984
H      1.617243   -1.951799    0.917389
H      1.617243   -1.951799   -0.917389
H      2.147163    0.388470    0.852346
H      2.147163    0.388470   -0.852346
H     -1.015514   -0.894093    1.630187
H      0.143073    0.358068    2.039322
H     -2.081432    1.596338    1.292975
H     -2.081432    1.596338   -1.292975
H      0.143073    0.358068   -2.039322
H     -1.015514   -0.894093   -1.630188
