17
1602_+.log
C      1.326645   -0.000257    0.710512
N      0.000163    0.000310    1.449542
C     -1.060002   -0.297139    0.349889
C     -0.253966   -1.264855   -0.501825
C      0.878398   -0.252704   -0.743617
C      0.086858    0.966305   -1.155100
C     -1.073636    0.943515   -0.499084
H      1.937151   -0.810780    1.106187
H      1.830916    0.949823    0.869071
H     -0.015039   -0.715388    2.175305
H     -0.187181    0.896840    1.894683
H     -1.982579   -0.624548    0.822908
H     -0.785470   -1.526371   -1.414434
H      0.056906   -2.174901    0.018345
H      1.695960   -0.556788   -1.392155
H      0.453485    1.747861   -1.807773
H     -1.859149    1.686786   -0.494942
