17
1604_+.log
C      1.314022   -0.000456    0.964070
N      0.000167    0.000325    1.722134
C     -0.699362   -0.562946    0.463973
C     -1.379420    0.489429   -0.334929
C     -0.666521    0.799043   -1.417126
C      0.605522    0.019487   -1.540310
C      0.675543   -0.744850   -0.218747
H      1.619036    1.022859    0.752734
H      2.092643   -0.513447    1.523918
H     -0.011308   -0.632878    2.520366
H     -0.335318    0.913813    2.025281
H     -1.306439   -1.426327    0.736410
H     -2.353572    0.888601   -0.080225
H     -0.981296    1.516146   -2.166217
H      0.562915   -0.655455   -2.400283
H      1.476888    0.662212   -1.701365
H      1.022250   -1.771278   -0.317294
