17
1605_+.log
C      1.425426    0.000484    1.038321
N      0.000143   -0.000488    1.554280
C     -0.435027    0.821642    0.334981
C     -1.557897    0.180649   -0.454269
C     -0.819370   -0.816323   -1.305591
C      0.500563   -0.661073   -1.252910
C      0.909491    0.453784   -0.335052
H      1.992703    0.758989    1.575233
H      1.904574   -0.972501    1.127395
H     -0.413959   -0.932533    1.539716
H     -0.156539    0.413383    2.471574
H     -0.581802    1.853160    0.647355
H     -2.074142    0.929695   -1.063543
H     -2.326212   -0.262716    0.189144
H     -1.332794   -1.547912   -1.916856
H      1.221426   -1.240135   -1.816848
H      1.487240    1.242865   -0.815704
