19
1617_+.log
C      2.167812   -0.000282   -0.036497
C      0.700163    0.278916   -0.045102
C      0.047763    1.363598   -0.832848
C     -0.287483   -0.072575   -1.115340
C     -1.555199   -0.606176   -0.472228
C     -1.159716   -0.921226    0.965952
N     -0.000247    0.000239    1.259711
H      2.383009   -1.035492    0.244032
H      2.705347    0.672000    0.637511
H      2.568828    0.155184   -1.038248
H     -0.714574    1.980971   -0.367155
H      0.682021    1.894178   -1.531876
H      0.066570   -0.521239   -2.034474
H     -1.907393   -1.511475   -0.965738
H     -2.366978    0.122728   -0.515972
H     -0.771291   -1.935457    1.055543
H     -1.939610   -0.771731    1.711874
H      0.647795   -0.427987    1.921122
H     -0.321069    0.870243    1.686941
