19
1629_+.log
C      1.631493    0.000116   -1.449477
C      0.400063    0.239306   -0.622976
C     -0.946924    0.369147   -1.260656
C     -0.658712   -0.823968   -0.403001
C     -1.106956   -0.766769    1.032463
N     -0.000028   -0.000186    1.723854
C      0.562355    0.960022    0.701870
H      2.409963   -0.514766   -0.879801
H      2.045712    0.942690   -1.815072
H      1.394142   -0.612858   -2.319819
H     -1.639941    1.114019   -0.883617
H     -1.003180    0.207522   -2.329752
H     -0.551751   -1.798552   -0.861273
H     -1.207493   -1.742372    1.505828
H     -2.028798   -0.203250    1.184446
H      0.731860   -0.655507    1.999787
H     -0.316757    0.469668    2.573341
H      1.601020    1.171174    0.954097
H     -0.015931    1.882001    0.775123
