17
1635_+.log
C      1.932215   -0.000757   -0.641151
C      1.074670    0.732785    0.331843
C     -0.351507    1.104566    0.130848
C     -1.124446    0.424247   -0.932176
C     -1.229473   -0.877321   -0.698107
C     -0.560487   -1.278987    0.577511
N     -0.000261    0.000413    1.080752
H      2.519380    0.735692   -1.193619
H      1.358453   -0.582281   -1.361268
H      2.634238   -0.653758   -0.119136
H      1.610116    1.381029    1.019455
H     -0.715181    2.026220    0.572700
H     -1.530266    0.960312   -1.778717
H     -1.723202   -1.600881   -1.332869
H      0.243573   -2.007439    0.442952
H     -1.255016   -1.671504    1.324101
H     -0.059351    0.174612    2.076827
