19
1637_+.log
C      1.897268    0.001613   -0.879064
C      0.694719    0.901622   -0.826759
C     -0.728757    0.416058   -0.829039
C     -0.991835   -1.047061   -0.518602
C     -0.864044   -1.170783    0.997492
N     -0.000165   -0.000936    1.419310
C     -0.156464    1.066072    0.393385
H      2.768614    0.488660   -0.435472
H      2.145377   -0.225133   -1.917520
H      1.756662   -0.964813   -0.384862
H      0.834949    1.841207   -1.351649
H     -1.455711    0.955213   -1.421682
H     -1.995909   -1.334560   -0.828448
H     -0.294578   -1.707766   -1.035989
H     -1.825727   -1.031725    1.490291
H     -0.411204   -2.095215    1.355054
H      0.979433   -0.284948    1.487522
H     -0.271136    0.341239    2.340425
H     -0.447850    2.026527    0.795398
