16
1651_+.log
C     -1.171186   -0.990441   -2.238942
C     -0.059457   -0.454890   -1.397013
C      0.285227    0.945900   -1.337407
C     -0.531664    0.415008   -0.129522
C      0.131744    0.180332    1.051872
N      0.000220   -0.000162    2.365085
N      1.336235    0.000270    1.618990
H     -1.632845   -1.868442   -1.786236
H     -0.753132   -1.292939   -3.203494
H     -1.938160   -0.237652   -2.427771
H      0.726970   -1.157596   -1.140399
H      1.302120    1.242369   -1.112177
H     -0.292198    1.652729   -1.922473
H     -1.587541    0.641519   -0.068409
H     -0.086433    0.826653    2.957736
H      1.717127   -0.946637    1.618643
