19
1652_+.log
C      0.903192   -0.000042   -2.589524
C      0.607760    0.638394   -1.262480
C     -0.737288    1.236176   -0.960429
C     -0.315589   -0.031911   -0.299128
N     -0.000095    0.000125    1.125855
C     -0.906023   -0.593327    2.133177
C      0.398669   -1.219532    1.859125
H      1.192776    0.759732   -3.317318
H      0.025980   -0.518435   -2.983117
H      1.719565   -0.720493   -2.511231
H      1.445941    1.163291   -0.809569
H     -0.772734    2.141157   -0.364234
H     -1.521271    1.162422   -1.704030
H     -0.788961   -0.968389   -0.570255
H      0.469955    0.851110    1.419073
H     -1.801082   -1.025797    1.705430
H     -1.039551   -0.004910    3.031731
H      0.441009   -2.103568    1.236392
H      1.213785   -1.086428    2.558734
