19
1658_+.log
C      2.083706    0.000066   -0.870167
C      0.576423   -0.157723   -0.904287
C     -0.234022    1.149046   -0.650376
C     -1.072443    0.695363    0.534434
C     -1.527960   -0.719217    0.139175
C     -0.020168   -1.003505    0.222336
N     -0.000981   -0.000425    1.379705
H      2.586503   -0.959988   -1.000379
H      2.446374    0.444229    0.063666
H      2.413189    0.658657   -1.675343
H      0.284897   -0.618008   -1.850517
H     -0.871810    1.437741   -1.484857
H      0.405755    2.000385   -0.408417
H     -1.699896    1.406709    1.065678
H     -2.112046   -1.221371    0.911608
H     -1.999364   -0.833408   -0.833844
H      0.401421   -1.981518    0.442558
H      0.868879    0.501641    1.560174
H     -0.370654   -0.389896    2.245468
