19
1661_+.log
C      2.247259    0.000199    0.198193
C      0.943514    0.760016    0.285703
C      0.169213    0.806146   -1.035341
C     -0.739220   -0.411785   -1.024723
C     -2.016057   -0.285757   -0.254321
C     -0.824981   -0.911718    0.382920
N     -0.000104   -0.000209    1.220242
H      2.736231   -0.087276    1.171895
H      2.929622    0.538323   -0.460451
H      2.099445   -0.998965   -0.219845
H      1.098479    1.746819    0.725415
H     -0.405463    1.729757   -1.130117
H      0.868585    0.774361   -1.870235
H     -0.687170   -1.119371   -1.841133
H     -2.325686    0.703119    0.070021
H     -2.833867   -0.952487   -0.495564
H     -0.797014   -1.948516    0.686651
H      0.538678   -0.526869    1.908165
H     -0.593757    0.644621    1.743916
