19
1662_+.log
C      2.228449    0.000754   -0.203132
C      0.855202   -0.611064   -0.116803
C     -0.110902   -0.360828   -1.302395
C     -1.279507    0.285726   -0.552056
C     -1.362453   -0.596935    0.705778
N     -0.000139   -0.000572    0.983365
C     -0.539314    1.271683    0.366252
H      2.802280   -0.156319    0.712905
H      2.201766    1.068598   -0.427408
H      2.773340   -0.486426   -1.013963
H      0.930985   -1.672665    0.125151
H     -0.396257   -1.285601   -1.802789
H      0.324154    0.312057   -2.041938
H     -2.164389    0.576581   -1.107287
H     -2.076810   -0.258086    1.453903
H     -1.354254   -1.681870    0.610484
H      0.399136   -0.004409    1.920789
H      0.223165    1.930973   -0.041991
H     -1.173411    1.785552    1.086371
