19
1663_+.log
C      1.185388   -0.000705   -1.836880
C      0.277185    0.784480   -0.899440
C     -1.144087    0.196903   -0.741135
C     -1.182001   -0.488030    0.596761
C     -0.106612   -1.420264    0.978917
N      0.000077    0.000093    1.367269
C      0.815578    0.918178    0.536410
H      2.171964    0.463156   -1.896426
H      0.766689   -0.007303   -2.844522
H      1.326719   -1.042061   -1.538801
H      0.187493    1.792468   -1.308286
H     -1.901390    0.982640   -0.753273
H     -1.386669   -0.500883   -1.544295
H     -2.108730   -0.532301    1.156935
H     -0.270820   -2.093959    1.810614
H      0.627484   -1.737680    0.251855
H     -0.098360    0.218978    2.352412
H      1.869201    0.655570    0.635658
H      0.659138    1.917552    0.943592
