17
1664_+.log
C      1.240719   -0.000145   -1.984439
C      0.550445   -0.295192   -0.895749
C     -0.935501   -0.530967   -0.794343
C     -1.284347   -0.041373    0.587426
C     -0.725685    1.245745    1.036081
N      0.000081   -0.000014    1.359253
C      1.130843   -0.403364    0.487161
H      2.310867    0.169322   -1.951469
H      0.762826    0.060350   -2.954958
H     -1.498515   -0.001534   -1.563697
H     -1.179192   -1.595444   -0.872575
H     -2.129694   -0.454391    1.124292
H     -0.209738    1.877933    0.322709
H     -1.159779    1.740950    1.895057
H      0.009779   -0.299497    2.327709
H      1.380455   -1.433991    0.755506
H      1.993916    0.237378    0.665601
