17
1665_+.log
C      1.322887    0.000034   -2.145233
C      0.519227   -0.132846   -0.907092
C     -0.749807   -0.516746   -0.778137
C     -1.208250   -0.468375    0.627038
C     -1.204269    0.855039    1.285858
N     -0.000002   -0.000100    1.379671
C      1.127177    0.177677    0.434297
H      0.747318   -0.293251   -3.021719
H      2.221320   -0.622219   -2.095219
H      1.658523    1.032175   -2.283029
H     -1.409037   -0.817338   -1.580707
H     -1.771873   -1.280456    1.073570
H     -1.712053    0.989265    2.233354
H     -1.074678    1.737945    0.672483
H      0.200751   -0.402658    2.287440
H      1.521826    1.193119    0.516755
H      1.920900   -0.523486    0.705763
