19
1666_+.log
C     -2.277737    1.017195   -0.000000
C     -0.789463    0.723100    0.000000
C     -0.314030   -0.092755    1.217326
C      0.891012   -0.850746    0.737445
N      1.879166   -0.000263   -0.000000
C      0.891012   -0.850746   -0.737445
C     -0.314030   -0.092755   -1.217326
H     -2.563367    1.594529   -0.880937
H     -2.563367    1.594529    0.880937
H     -2.857227    0.090384   -0.000000
H     -0.267870    1.689326    0.000000
H     -0.119938    0.513787    2.103760
H     -1.062309   -0.841730    1.495379
H      1.356172   -1.632033    1.325448
H      1.746780    1.005706    0.000000
H      2.848549   -0.295112   -0.000000
H      1.356172   -1.632033   -1.325448
H     -1.062309   -0.841730   -1.495379
H     -0.119938    0.513787   -2.103760
