17
1668_+.log
C      1.255899    0.000218   -2.181501
C      0.402507   -0.060326   -0.973284
C      0.011281   -1.153622   -0.304755
C     -0.805571   -0.784939    0.868532
N      0.000304   -0.000131    1.886458
C     -0.869423    0.690069    0.888845
C     -0.154146    1.192684   -0.337648
H      1.542993   -0.993121   -2.523365
H      2.165066    0.577537   -1.988275
H      0.730073    0.511913   -2.993316
H      0.246407   -2.178552   -0.556725
H     -1.549757   -1.430238    1.317129
H      1.006070    0.014252    1.746300
H     -0.301668    0.014700    2.854890
H     -1.680616    1.241384    1.345530
H      0.611653    1.941722   -0.113336
H     -0.875621    1.683954   -0.999043
