21
1702_+.log
C      2.122550    0.002295   -0.541502
C      0.638067    0.264711   -0.543615
C     -0.192351   -0.621781   -1.456784
C     -1.617962   -0.593141   -0.882271
C     -1.476446   -0.024481    0.531227
N     -0.000446    0.000670    0.804475
C      0.390057    0.924625    1.891688
H      2.672698    0.682213    0.110059
H      2.505801    0.145449   -1.552857
H      2.345185   -1.029279   -0.253299
H      0.427951    1.320693   -0.741799
H      0.214654   -1.637138   -1.447773
H     -0.144589   -0.269894   -2.486528
H     -2.060645   -1.588179   -0.869963
H     -2.277652    0.043444   -1.470724
H     -1.818342    1.008426    0.600702
H     -1.968678   -0.603114    1.312003
H      0.283639   -0.942850    1.076819
H      0.146628    1.941255    1.586513
H      1.457979    0.837037    2.079394
H     -0.163214    0.667696    2.793877
