17
1705_+.log
C      2.010262   -0.000126   -0.535956
C      0.869773    0.730858    0.087086
C     -0.552994    0.469060   -0.265983
C     -0.932865   -0.538904   -1.201327
C     -1.265789   -1.368112   -2.000105
N      0.000339   -0.000478    1.047872
C     -0.438488    0.575869    2.323222
H      2.347996    0.561572   -1.409029
H      1.721234   -0.996634   -0.873489
H      2.848493   -0.076313    0.158410
H      1.072878    1.735176    0.444757
H     -1.251158    1.290347   -0.134056
H     -1.566316   -2.104037   -2.713510
H      0.162822   -1.003981    1.067036
H     -0.610362    1.642550    2.189332
H      0.341306    0.420563    3.068203
H     -1.362053    0.089689    2.635088
