19
1712_+.log
C     -1.552954   -0.168660    1.611536
C     -0.416202   -0.030233    0.667589
C     -0.416202   -0.030233   -0.667589
C     -1.552954   -0.168660   -1.611536
C      0.961906    0.203706   -1.209915
N      1.835424   -0.000280    0.000000
C      0.961906    0.203706    1.209915
H     -2.496816   -0.311468    1.089131
H     -1.647515    0.722147    2.240530
H     -1.403979   -1.018363    2.284475
H     -1.647515    0.722147   -2.240530
H     -2.496816   -0.311468   -1.089131
H     -1.403979   -1.018363   -2.284475
H      1.106798    1.224712   -1.576592
H      1.269432   -0.488838   -1.995604
H      2.649166    0.613953   -0.000000
H      2.182947   -0.958592    0.000000
H      1.269432   -0.488838    1.995604
H      1.106798    1.224712    1.576592
