19
1713_+.log
C      1.718336    0.000858   -1.850787
C      0.558875   -0.048152   -0.926124
C     -0.317543   -1.040219   -0.751502
C     -1.421721   -0.659635    0.195810
C     -0.817445    0.543452    0.915626
N     -0.001120    0.000379    2.072330
C      0.161815    1.145123   -0.085714
H      1.846926   -0.941405   -2.382381
H      2.646181    0.229061   -1.317654
H      1.582446    0.795255   -2.591631
H     -0.300013   -1.984811   -1.280449
H     -2.324438   -0.350689   -0.343116
H     -1.737648   -1.456101    0.878369
H     -1.535093    1.241358    1.345378
H      0.667923   -0.675523    1.686034
H     -0.585453   -0.481535    2.756922
H      0.520522    0.735052    2.552346
H      1.005359    1.662399    0.385941
H     -0.348907    1.898375   -0.696152
