21
1715_+.log
C     -1.778755   -1.130722   -0.000000
C     -0.911522    0.117469    0.000000
C     -1.752264    1.375054    0.000000
C      0.208833    0.049655    1.081660
C      1.130690   -0.503882    0.000000
N      2.551881   -0.000479   -0.000000
C      0.208833    0.049655   -1.081660
H     -2.422297   -1.148552   -0.882436
H     -2.422297   -1.148552    0.882436
H     -1.190701   -2.052682    0.000000
H     -1.134062    2.276370    0.000000
H     -2.397120    1.408729    0.881586
H     -2.397120    1.408729   -0.881586
H      0.041999   -0.566838    1.964746
H      0.504931    1.055628    1.395921
H      1.203194   -1.590967    0.000000
H      2.567976    1.021557   -0.000000
H      3.061824   -0.319614   -0.826931
H      3.061824   -0.319614    0.826931
H      0.504931    1.055628   -1.395921
H      0.041999   -0.566838   -1.964746
