21
1716_+.log
C     -2.446139    0.378608   -0.000000
C     -1.060230    0.984039    0.000000
C     -0.091996    0.450269    1.088848
C      0.677694   -0.317165    0.000000
C      0.539131   -1.819093    0.000000
N      2.164310   -0.000587   -0.000000
C     -0.091996    0.450269   -1.088848
H     -3.006020    0.696719    0.881900
H     -2.420337   -0.714356   -0.000000
H     -3.006020    0.696719   -0.881900
H     -1.138584    2.071506    0.000000
H     -0.524816   -0.171581    1.873461
H      0.492486    1.242799    1.564414
H     -0.517785   -2.082837    0.000000
H      0.986451   -2.268901    0.891525
H      0.986451   -2.268901   -0.891525
H      2.324029    1.008120   -0.000000
H      2.622070   -0.392716   -0.826244
H      2.622070   -0.392716    0.826244
H      0.492486    1.242799   -1.564414
H     -0.524816   -0.171581   -1.873461
