19
1729_+.log
C      1.823453   -0.003689   -0.268622
C      0.323446    0.089803   -0.095493
C     -0.412490   -1.254053   -0.277130
C     -0.401471   -1.443549    1.239549
N     -0.005112    0.000867    1.434137
C     -0.239354    1.333148   -0.691997
C     -1.204184    1.376556   -1.598603
H      2.321742    0.900899    0.087984
H      2.042715   -0.105938   -1.332461
H      2.245191   -0.872165    0.244231
H      0.124679   -2.000811   -0.856882
H     -1.419504   -1.144489   -0.674925
H     -1.337361   -1.683820    1.737959
H      0.391523   -2.086996    1.613787
H     -0.791352    0.599356    1.683955
H      0.765981    0.183599    2.074768
H      0.245385    2.255187   -0.375011
H     -1.694963    0.487819   -1.979104
H     -1.524860    2.321782   -2.019238
