17
1732_+.log
C      2.505718    0.000624    0.864950
C      1.230234    0.704773    0.495040
C      0.679025    0.448977   -0.917826
C     -0.351261   -0.528330   -0.314714
N      0.000036   -0.000717    1.083584
C     -1.742176   -0.405374   -0.648703
C     -2.899102   -0.283765   -0.938362
H      2.711944    0.075263    1.934908
H      3.333090    0.477693    0.336225
H      2.493249   -1.052949    0.573092
H      1.238019    1.745496    0.815907
H      1.376750    0.007276   -1.625464
H      0.206000    1.321024   -1.365584
H     -0.019521   -1.567216   -0.362069
H     -0.713562    0.641898    1.427266
H      0.178793   -0.705081    1.799148
H     -3.929151   -0.182786   -1.201691
