17
1740_+.log
C      1.072998   -0.000485   -2.083506
C      0.361071    0.034152   -0.968391
C     -0.868231    0.854873   -0.671549
C     -0.790171    1.135176    0.828848
N     -0.000348   -0.000056    1.376161
C     -0.382129   -1.376286    1.015467
C      0.706528   -0.714449    0.261839
H      0.792354    0.590081   -2.947168
H      1.951410   -0.627911   -2.179305
H     -0.893974    1.780661   -1.244535
H     -1.778975    0.301875   -0.917903
H     -0.218527    2.038441    1.043966
H     -1.753595    1.186116    1.334787
H      0.473946    0.136744    2.261829
H     -1.366913   -1.469537    0.576215
H     -0.122294   -2.117131    1.760894
H      1.728768   -1.013698    0.459844
