17
1741_+.log
C      0.784555    0.000394   -2.276494
C      0.213152   -0.191999   -0.921131
C     -0.897837   -0.829335   -0.557721
C     -1.121737   -0.835190    0.919460
N      0.000039   -0.000030    1.422339
C      0.116622    1.418309    1.020966
C      0.877546    0.391680    0.279018
H      0.164860   -0.479526   -3.032245
H      1.790728   -0.425008   -2.335950
H      0.871183    1.062744   -2.522237
H     -1.595053   -1.306632   -1.233293
H     -1.032643   -1.829484    1.365166
H     -2.071929   -0.399517    1.237413
H      0.425638   -0.258526    2.304826
H     -0.779239    1.826111    0.569311
H      0.617562    2.036074    1.756414
H      1.948012    0.305113    0.433480
