19
1755_+.log
C     -2.363685   -0.297758   -0.000000
C     -1.114105    0.144701   -0.000000
C     -0.337518    0.412743    1.256799
C      0.987322   -0.327565    1.253161
N      1.748846    0.000352   -0.000000
C      0.987322   -0.327566   -1.253161
C     -0.337518    0.412743   -1.256799
H     -2.900854   -0.479782   -0.923928
H     -2.900854   -0.479782    0.923928
H     -0.146015    1.489622    1.361573
H     -0.897133    0.107710    2.142173
H      1.621649   -0.057619    2.098462
H      0.843322   -1.409385    1.248732
H      1.971256    0.998757   -0.000000
H      2.641244   -0.495405   -0.000000
H      0.843322   -1.409385   -1.248732
H      1.621649   -0.057619   -2.098462
H     -0.897133    0.107711   -2.142173
H     -0.146015    1.489622   -1.361573
