19
1760_+.log
C      0.970624   -0.000463   -2.372067
C      0.644151    0.386482   -0.936076
C      0.747364   -0.790702    0.054463
C     -0.439097   -0.652890    1.005866
N     -0.000354   -0.000526    2.326953
C     -1.374183    0.274869    0.299394
C     -0.767878    0.849695   -0.736460
H      1.994606   -0.370863   -2.448985
H      0.877008    0.857728   -3.039603
H      0.296348   -0.783224   -2.727952
H      1.323270    1.201522   -0.648626
H      1.712281   -0.853870    0.565544
H      0.625345   -1.729447   -0.490155
H     -0.874986   -1.604571    1.315882
H      0.435100    0.904483    2.137725
H      0.668338   -0.583180    2.834531
H     -0.803461    0.167006    2.935838
H     -2.397378    0.439956    0.615526
H     -1.235184    1.577254   -1.390791
