19
1793_+.log
C      2.481728   -0.004163    0.210239
C      1.163057   -0.704926    0.216394
C      0.546271   -1.219875    1.453612
N      0.001518    0.000027    0.821417
C     -1.336701    0.014874    0.172079
C     -1.423978    1.089889   -0.855459
C     -1.615232    0.842388   -2.142733
H      2.535366    0.723382   -0.600680
H      3.272559   -0.740565    0.055476
H      2.679387    0.499210    1.159650
H      0.872088   -1.197934   -0.705447
H     -0.123811   -2.069089    1.411128
H      1.043550   -1.055571    2.401831
H      0.240084    0.868425    1.291399
H     -2.065740    0.149792    0.976111
H     -1.486372   -0.972914   -0.266523
H     -1.364979    2.115646   -0.498893
H     -1.711148   -0.169188   -2.524980
H     -1.707882    1.646982   -2.861973
