16
1811_+.log
C     -1.313929   -1.494904    0.000001
C     -0.296474   -0.371938    0.000002
C      0.833853   -0.415756    1.061994
N      1.829551    0.000619    0.000001
C      0.833852   -0.415753   -1.061992
C     -0.919517    0.948493    0.000004
N     -1.356653    2.011296   -0.000013
H     -1.953235   -1.430105   -0.881574
H     -1.953234   -1.430107    0.881577
H     -0.811602   -2.464080   -0.000001
H      1.063806   -1.431445    1.380085
H      0.792974    0.264268    1.909272
H      1.988272    1.009506    0.000002
H      2.734811   -0.468425   -0.000001
H      0.792971    0.264273   -1.909268
H      1.063804   -1.431441   -1.380087
