19
1817_+.log
C      1.522044    0.000600   -1.529070
C      0.462403   -0.739200   -0.726673
C      0.844129   -0.963324    0.744238
N     -0.000311   -0.000438    1.554959
C     -1.198383    0.346678    0.739057
C     -0.956687    1.393055   -0.290542
C     -0.902159   -0.055720   -0.667528
H      1.178712    0.168755   -2.550648
H      2.442843   -0.583370   -1.580378
H      1.770793    0.973694   -1.098120
H      0.318051   -1.723019   -1.178147
H      0.570246   -1.962417    1.080995
H      1.895143   -0.787946    0.972357
H     -0.277436   -0.423010    2.440589
H      0.527504    0.840984    1.791051
H     -2.140395    0.219166    1.253715
H     -0.034630    1.963044   -0.247925
H     -1.817966    1.969232   -0.602678
H     -1.700178   -0.453498   -1.280513
