17
1818_+.log
C      1.699863    0.000148   -1.612092
C      0.757013    0.073657   -0.686078
C      0.898724    0.790212    0.626809
N      0.000009    0.000037    1.556793
C     -1.052795   -0.631807    0.717949
C     -1.738127    0.269289   -0.241309
C     -0.575862   -0.571525   -0.704326
H      2.669791    0.463338   -1.475313
H      1.527177   -0.517108   -2.547793
H      1.909999    0.808881    1.028833
H      0.512232    1.810046    0.598176
H      0.542987   -0.735628    2.011974
H     -0.392433    0.587773    2.293991
H     -1.534138   -1.481249    1.182451
H     -1.620654    1.343539   -0.164701
H     -2.725946   -0.048536   -0.548629
H     -0.754444   -1.397969   -1.378737
