17
1827_+.log
C      1.852096   -0.000343   -1.553963
C      0.785375   -0.075491   -0.758860
C      0.859900   -0.751423    0.575544
N     -0.000100    0.000066    1.552945
C     -1.440672    0.010815    1.144143
C     -1.558612    0.442345   -0.277678
C     -0.528802    0.428181   -1.126017
H      2.821671   -0.380180   -1.253205
H      1.777898    0.433079   -2.544184
H      1.873818   -0.785301    0.973115
H      0.455987   -1.766590    0.538745
H      0.333357    0.965761    1.601174
H      0.095171   -0.399139    2.487374
H     -1.833228   -0.995970    1.317194
H     -1.964971    0.692043    1.817951
H     -2.535076    0.795302   -0.586721
H     -0.657502    0.805315   -2.134419
