21
1829_+.log
C     -1.394679    1.569478   -0.000005
C     -0.393022    0.430811    0.000006
C      0.993579    1.042302    0.000023
N      2.075433   -0.006817   -0.000012
C     -0.591642   -0.665217    1.083981
C     -0.495500   -1.758610    0.000000
C     -0.591612   -0.665214   -1.083979
H     -1.285252    2.201420   -0.885881
H     -1.285151    2.201529    0.885781
H     -2.410836    1.172962    0.000077
H      1.162207    1.653816   -0.888770
H      1.162211    1.653765    0.888850
H      1.990053   -0.606269   -0.823809
H      1.990112   -0.606272    0.823788
H      3.007854    0.408677   -0.000045
H     -1.583080   -0.602698    1.532107
H      0.121331   -0.699579    1.916290
H      0.449681   -2.310509    0.000012
H     -1.289408   -2.503120   -0.000014
H      0.121389   -0.699571   -1.916265
H     -1.583034   -0.602693   -1.532136
