19
1865_+.log
C      2.509058   -0.000243    1.017799
C      1.142438   -0.453930    0.623314
N      0.000107    0.000808    1.476780
C      0.140933    0.452243    0.041786
C     -0.936362    0.036546   -0.891343
C     -2.157804    0.900094   -0.887826
C     -0.757882   -1.006519   -1.695508
H      2.895146   -0.590674    1.850069
H      2.526631    1.057997    1.287830
H      3.182001   -0.137753    0.169208
H      1.033448   -1.505266    0.379309
H     -0.737254   -0.666788    1.676282
H      0.192228    0.660239    2.223135
H      0.415567    1.504352    0.014643
H     -2.617609    0.953099    0.104413
H     -2.904841    0.522209   -1.584029
H     -1.910256    1.925730   -1.178879
H     -1.524612   -1.301206   -2.402039
H      0.157407   -1.587038   -1.704952
