16
1870_+.log
C     -2.359988   -0.177469    0.922968
C     -0.983952    0.389879    0.830642
N     -0.000287    0.000343    1.900842
C      0.193900   -0.421266    0.485211
C      1.384542    0.149269   -0.244546
C      1.134072    0.075608   -1.676108
N      0.891487    0.001134   -2.795588
H     -2.840256   -0.072808   -0.052200
H     -2.961398    0.364836    1.653819
H     -2.349400   -1.239699    1.177099
H     -0.907613    1.451523    0.613555
H      0.611071    0.714196    2.283797
H     -0.286499   -0.702867    2.574696
H      0.029666   -1.486451    0.355780
H      2.291291   -0.413668   -0.004256
H      1.555377    1.195540    0.031593
