19
1871_+.log
C      2.244836   -0.000048    0.086470
C      0.864784    0.602062    0.122516
N     -0.000174    0.000004    1.252711
C     -1.217215   -0.461272    0.483614
C     -1.445964    0.743641   -0.435852
C     -0.090469    0.291277   -1.027515
C     -0.553430   -1.151357   -0.711244
H      2.807444    0.457232   -0.729187
H      2.226200   -1.077971   -0.087098
H      2.795275    0.199443    1.008716
H      0.920204    1.675524    0.312694
H     -0.233712    0.687768    1.967529
H      0.478695   -0.775646    1.710458
H     -1.963571   -0.909437    1.135727
H     -2.280143    0.566759   -1.111265
H     -1.524562    1.737654    0.010490
H      0.247131    0.595216   -2.014523
H      0.183292   -1.934984   -0.528456
H     -1.301710   -1.504068   -1.417756
