17
1876_+.log
C      2.223657    0.000170    0.506844
C      0.771573   -0.360150    0.503164
N     -0.000347   -0.000207    1.780069
C     -1.170074    0.442153    0.928549
C     -0.246762    0.483556   -0.305054
C     -0.741411   -0.065905   -1.541128
C     -1.152314   -0.533922   -2.565187
H      2.787794   -0.596143    1.227049
H      2.378459    1.061732    0.716747
H      2.634701   -0.205174   -0.484044
H      0.602125   -1.424204    0.333279
H      0.436523    0.773835    2.280433
H     -0.172261   -0.753649    2.443801
H     -1.626404    1.365990    1.275158
H     -1.902665   -0.360823    0.886403
H      0.142599    1.494799   -0.462494
H     -1.517268   -0.941440   -3.481321
