19
1882_+.log
C      2.256658   -0.000104    0.227158
C      0.867055   -0.587606    0.184404
N      0.000058   -0.000126    1.290288
C     -1.439375   -0.136578    0.870384
C     -1.377474   -0.051565   -0.628139
C     -0.546640    1.043372   -1.218874
C      0.038248   -0.323965   -1.046643
H      2.859489   -0.459078   -0.557455
H      2.757571   -0.194285    1.178195
H      2.241265    1.076821    0.040749
H      0.895951   -1.663801    0.376935
H      0.183728   -0.444001    2.189194
H      0.238460    0.986176    1.398143
H     -1.790899   -1.114280    1.202298
H     -2.024141    0.640957    1.364138
H     -2.220643   -0.448004   -1.177477
H     -0.210916    1.868301   -0.596700
H     -0.785932    1.347609   -2.229003
H      0.262478   -0.924305   -1.918388
