21
1891_+.log
C      2.114827   -0.000222    0.419249
C      0.614414    0.000145    0.249794
N      0.001066    0.000466    1.655234
C      0.018516    1.192762   -0.489382
C     -1.414182    0.773791   -0.850536
C     -1.417765   -0.774351   -0.837380
C      0.017340   -1.192168   -0.488621
H      2.467687   -0.889061    0.949420
H      2.468048    0.888537    0.949346
H      2.583949   -0.000218   -0.564906
H      0.292294   -0.825458    2.180824
H     -1.019538   -0.001617    1.599387
H      0.289236    0.828550    2.179066
H      0.619209    1.336466   -1.390068
H      0.081741    2.127652    0.074920
H     -1.704480    1.176382   -1.820073
H     -2.140152    1.178405   -0.139294
H     -2.134338   -1.163113   -0.107461
H     -1.725623   -1.193585   -1.794318
H      0.086671   -2.128821    0.071996
H      0.611607   -1.330674   -1.394424
