17
1892_+.log
C      0.299170   -1.931602    0.000000
C      0.367244   -0.415366    0.000000
N      1.837175   -0.000598    0.000000
C     -0.303419    0.237981    1.182754
C     -1.241676    1.076427    0.735960
C     -1.241676    1.076427   -0.735960
C     -0.303419    0.237981   -1.182754
H     -0.748221   -2.233556    0.000000
H      0.769200   -2.356371    0.890772
H      0.769200   -2.356371   -0.890772
H      1.906170    1.019742    0.000000
H      2.322102   -0.356791   -0.826093
H      2.322103   -0.356791    0.826093
H     -0.074000   -0.007867    2.211715
H     -1.918118    1.658630    1.347281
H     -1.918118    1.658630   -1.347281
H     -0.074000   -0.007867   -2.211715
