19
1896_+.log
C      2.409698    0.000118    0.734246
C      1.042453    0.576911    0.449339
N      0.000122   -0.000270    1.401554
C     -1.296110   -0.115870    0.650994
C     -0.845515   -0.136742   -0.781464
C     -1.791485   -0.497829   -1.864220
C      0.424846    0.242298   -0.870869
H      2.747764    0.234077    1.746323
H      3.131632    0.436064    0.042367
H      2.423187   -1.083078    0.586218
H      1.047690    1.659945    0.621187
H     -0.087461    0.551820    2.254144
H      0.314662   -0.931703    1.677322
H     -1.916263    0.755187    0.881706
H     -1.827880   -1.011741    0.975565
H     -1.312759   -0.441223   -2.840559
H     -2.654953    0.174584   -1.866042
H     -2.178437   -1.511515   -1.725491
H      0.984548    0.349041   -1.790841
