19
1897_+.log
C      2.209912   -0.000370    0.119840
C      0.890107    0.729600    0.282568
N      0.000023    0.000258    1.267363
C     -0.722118   -1.172417    0.673349
C     -1.664005   -0.682978   -0.402435
C     -1.007802    0.324861   -1.289712
C      0.132380    0.933612   -0.989661
H      2.841914    0.570397   -0.561677
H      2.080458   -0.992163   -0.315890
H      2.747191   -0.083533    1.068457
H      1.079032    1.701709    0.749965
H      0.564273   -0.301733    2.062697
H     -0.692695    0.658916    1.628125
H      0.041993   -1.834682    0.267855
H     -1.236930   -1.687861    1.484279
H     -2.580139   -0.267391    0.035434
H     -1.989497   -1.546210   -0.989183
H     -1.505654    0.559453   -2.224003
H      0.577214    1.644008   -1.677708
