16
1911_+.log
C     -2.209126   -0.046858   -0.000000
C     -0.738594   -0.207750   -0.000000
C      0.266485    0.718684   -0.000000
C      0.227211    2.201173    0.000000
N      1.443633    0.000068   -0.000000
C      1.197790   -1.301386   -0.000000
N     -0.119464   -1.440415   -0.000000
H     -2.468191    1.010719   -0.000000
H     -2.659897   -0.502464    0.885173
H     -2.659897   -0.502464   -0.885173
H      1.233633    2.620653    0.000000
H     -0.290380    2.579623    0.883405
H     -0.290380    2.579623   -0.883405
H      2.368496    0.404396   -0.000000
H      1.928279   -2.093685    0.000000
H     -0.596621   -2.330098    0.000000
