21
1929_+.log
C      1.319041   -0.002953   -2.228470
C     -0.177482    0.027846   -1.968878
C     -0.526434    0.511170   -0.585873
C     -1.817930    0.137484    0.082111
C     -0.531891   -0.448235    0.556915
N     -0.001687   -0.004840    1.864467
C      1.466801   -0.201082    2.023981
H      1.529787   -0.340476   -3.243890
H      1.832333   -0.686744   -1.545917
H      1.764084    0.988899   -2.115109
H     -0.610303   -0.966897   -2.119489
H     -0.671295    0.683661   -2.691659
H     -0.165708    1.511941   -0.351365
H     -2.310978    0.881369    0.698998
H     -2.496846   -0.532176   -0.431137
H     -0.312982   -1.495763    0.387447
H     -0.225131    0.985055    1.986131
H     -0.496480   -0.496000    2.613160
H      1.972081    0.347583    1.232586
H      1.683608   -1.263662    1.937453
H      1.772797    0.166339    3.002084
