21
1932_+.log
C      1.665115   -0.002497   -1.839382
C      0.315099    0.611982   -1.515062
C     -0.395777    0.118890   -0.266423
C     -1.688435    0.853307    0.001987
C     -0.346774   -1.333093    0.123347
C      0.437099   -0.329202    0.898415
N      0.001279    0.001604    2.277339
H      2.031406    0.401044   -2.783976
H      1.613668   -1.087002   -1.958471
H      2.425052    0.228123   -1.088220
H     -0.369630    0.440254   -2.351976
H      0.419425    1.699372   -1.432916
H     -2.327937    0.789477   -0.880573
H     -1.517450    1.914570    0.202088
H     -2.283195    0.427722    0.818633
H      0.224818   -2.039259   -0.464722
H     -1.240360   -1.752387    0.574002
H      1.516929   -0.328371    0.833817
H     -1.008760    0.162700    2.300571
H      0.452776    0.854457    2.615937
H      0.217553   -0.752763    2.933466
