21
1933_+.log
C      2.423742    0.000647   -1.190531
C      0.921106    0.079150   -1.407242
C      0.188073    0.567242   -0.184738
C     -1.269813    0.293718    0.099422
C     -2.166754   -0.491191   -0.816725
C     -0.204254   -0.390831    0.891022
N     -0.002366    0.000673    2.309968
H      2.929177   -0.336177   -2.096266
H      2.678820   -0.704812   -0.394161
H      2.840375    0.975798   -0.925659
H      0.697401    0.761101   -2.232749
H      0.535458   -0.898168   -1.709283
H      0.529113    1.540134    0.167828
H     -1.772564    1.109944    0.615106
H     -1.649885   -1.334354   -1.275720
H     -2.538149    0.148482   -1.619044
H     -3.029860   -0.880990   -0.273787
H     -0.030672   -1.452203    0.759061
H     -0.168074    1.001869    2.432641
H      0.953887   -0.191053    2.619964
H     -0.644200   -0.495026    2.934319
