17
1936_+.log
C      2.497500   -0.000525   -1.082833
C      1.472046    0.373106   -0.587242
C      0.231053    0.814512    0.011988
C     -1.024203    0.524056   -0.821527
C     -1.482689   -0.847018   -0.344154
C     -1.295610   -0.760937    1.155712
N      0.000029    0.000167    1.304771
H      3.411423   -0.322903   -1.531421
H      0.304036    1.864214    0.303479
H     -0.793963    0.558655   -1.884677
H     -1.785180    1.279511   -0.612616
H     -0.860618   -1.639030   -0.768913
H     -2.519260   -1.060495   -0.602760
H     -2.076304   -0.162838    1.626499
H     -1.210085   -1.713135    1.676721
H     -0.005823    0.604039    2.125810
H      0.786035   -0.641887    1.413522
