21
1937_+.log
C      2.073949    0.001966   -0.862902
C      0.813478    0.849951   -0.926404
C     -0.393940    0.349229   -0.153734
C     -1.537892    1.330177   -0.170641
C     -0.783726   -1.132080   -0.367144
C     -0.271066   -1.461937    1.034398
N      0.000604   -0.000413    1.311342
H      2.844126    0.443603   -1.495725
H      1.914292   -1.017222   -1.220057
H      2.509098   -0.051470    0.141210
H      0.482810    0.935663   -1.966140
H      1.032206    1.872146   -0.598639
H     -1.890262    1.442632   -1.197904
H     -1.227674    2.316035    0.184060
H     -2.384939    0.983096    0.426884
H     -0.263282   -1.635326   -1.178540
H     -1.855577   -1.278281   -0.491224
H      0.658953   -2.024521    1.075089
H     -0.982548   -1.874672    1.745658
H     -0.616332    0.416918    2.005540
H      0.964030    0.220746    1.557039
