21
1938_+.log
C      2.445637   -0.002151   -0.053788
C      1.106537   -0.446253   -0.617834
C     -0.136415   -0.025704    0.129920
C     -1.445120   -0.619952   -0.332243
C     -1.845984   -0.133479   -1.718046
C     -0.185575    1.252508    0.862445
N      0.000898    0.001357    1.634663
H      3.244343   -0.352611   -0.707823
H      2.662376   -0.430885    0.930479
H      2.544546    1.083776    0.004562
H      1.081319   -1.536151   -0.712788
H      0.991262   -0.052706   -1.631479
H     -2.232901   -0.357703    0.383589
H     -1.356620   -1.710468   -0.325776
H     -1.906955    0.956352   -1.760412
H     -2.827906   -0.530424   -1.976122
H     -1.147136   -0.468665   -2.485140
H      0.676531    1.905912    0.886980
H     -1.143125    1.730447    1.027263
H      0.918919   -0.165503    2.031644
H     -0.772297   -0.339669    2.194385
