12
2001_+.log
C     -3.036083    0.028999   -0.560137
C     -1.891339    0.254580   -0.287369
C     -0.530483    0.538123    0.008848
N      0.000090   -0.000141    1.310951
C      0.492975   -0.548753    0.017840
C      1.860938   -0.257366   -0.295032
N      2.953606    0.000410   -0.537471
H     -4.058101   -0.169351   -0.804226
H     -0.164287    1.541828   -0.189002
H      0.635059    0.582511    1.852634
H     -0.625235   -0.584634    1.861077
H      0.150371   -1.559568   -0.179268
