21
2004_+.log
C      1.992886    0.016496   -1.505333
C      1.644741   -0.102864   -0.031800
C      0.194848    0.142391    0.308397
N     -0.001767    0.006197    1.782927
C     -0.665896    1.175534   -0.340966
C     -0.970890   -0.283654   -0.531994
C     -2.225399   -0.891546    0.035600
H      3.058780   -0.167442   -1.640472
H      1.784802    1.014102   -1.894994
H      1.459183   -0.715127   -2.113652
H      1.919863   -1.106687    0.318520
H      2.259616    0.607158    0.536595
H     -0.994346    0.024099    2.026152
H      0.468413    0.760732    2.288640
H      0.384193   -0.881227    2.116333
H     -0.233565    1.743037   -1.154126
H     -1.350741    1.745775    0.279328
H     -0.674375   -0.701305   -1.487638
H     -2.594302   -0.374209    0.929092
H     -2.098661   -1.951012    0.270584
H     -3.031884   -0.813652   -0.695338
