15
2008_+.log
C      2.649789   -0.001212   -1.048590
C      1.554594    0.279988   -0.652246
C      0.232418    0.616268   -0.173105
N     -0.000250    0.000974    1.209083
C     -1.448205   -0.406117    1.297037
C     -1.834491   -0.495987   -0.142670
C     -0.932047    0.049956   -0.939858
H      3.624537   -0.247735   -1.408934
H      0.136589    1.703785   -0.061181
H      0.281969    0.635812    1.955925
H      0.597769   -0.825235    1.273443
H     -1.999957    0.367761    1.837586
H     -1.526654   -1.340319    1.854204
H     -2.771887   -0.938258   -0.451514
H     -0.982449    0.139591   -2.015750
