19
2030_+.log
C      0.903113    0.002144   -2.798839
C      0.706102    0.822358   -1.778062
C      1.043545    0.486134   -0.357142
C     -0.215491    0.415718    0.470314
C     -1.183059   -0.765784    0.308872
C     -1.225402   -0.886197    1.834414
N     -0.002621    0.004700    1.936984
H      0.650876    0.294260   -3.810920
H      1.341462   -0.982358   -2.668120
H      0.282333    1.808876   -1.951208
H      1.567407   -0.475588   -0.318969
H      1.710205    1.250152    0.062217
H     -0.739004    1.373406    0.492554
H     -0.709369   -1.620946   -0.174116
H     -2.126904   -0.554665   -0.186084
H     -2.066970   -0.377868    2.300902
H     -1.073532   -1.859299    2.295223
H     -0.023667    0.743629    2.637885
H      0.860651   -0.525110    2.055854
