21
2034_+.log
C      2.138646   -0.007939   -0.963736
C      0.623966   -0.107856   -1.106507
C      0.169458   -1.556839   -1.228029
C     -0.068070    0.659885   -0.000793
C     -1.597642    0.713145    0.144504
C     -1.421768    0.440466    1.639745
N      0.009498    0.013160    1.393164
H      2.476689    1.030150   -0.930445
H      2.634046   -0.490503   -1.806953
H      2.494256   -0.514006   -0.059377
H      0.327482    0.420748   -2.021527
H      0.495999   -2.170434   -0.379210
H      0.624195   -2.010305   -2.109453
H     -0.911458   -1.662087   -1.336771
H      0.370584    1.653756    0.107596
H     -2.104827   -0.098924   -0.374472
H     -2.067356    1.656676   -0.121032
H     -2.016079   -0.339461    2.110069
H     -1.418062    1.334580    2.260078
H      0.718682    0.362580    2.034444
H      0.106901   -0.999790    1.320081
