21
2035_+.log
C      1.845926   -0.007300   -0.883452
C      0.345483   -0.257487   -0.959764
C      0.045328   -1.749149   -1.082391
C     -0.459526    0.377997    0.165501
C     -1.954930    0.382178    0.024426
C      0.134878    1.395512    1.053997
N      0.006392    0.008581    1.556911
H      2.332755   -0.492635   -1.729836
H      2.308952   -0.438848    0.012551
H      2.102237    1.052034   -0.933657
H     -0.027726    0.240837   -1.862161
H      0.387614   -2.303321   -0.202612
H      0.573539   -2.159776   -1.943329
H     -1.015109   -1.957726   -1.224480
H     -2.349900   -0.620110   -0.137745
H     -2.220246    0.995239   -0.839018
H     -2.447146    0.816932    0.897348
H     -0.513673    2.104729    1.552766
H      1.160982    1.709067    0.920223
H      0.857988   -0.535288    1.642504
H     -0.691155   -0.188259    2.265246
