21
2037_+.log
C      1.548131   -0.000090   -2.653223
C      0.359654   -0.152200   -1.719076
C      0.691679    0.313565   -0.303644
C     -0.444665    0.090183    0.660283
C     -1.703112    0.881688    0.465311
C     -0.512912   -1.191135    1.386229
N     -0.000294    0.000328    2.105676
H      1.290092   -0.328152   -3.660569
H      2.399163   -0.597448   -2.317178
H      1.872841    1.041149   -2.716119
H      0.038572   -1.199364   -1.692839
H     -0.485309    0.424498   -2.105978
H      0.944542    1.378906   -0.312673
H      1.580775   -0.224944    0.047687
H     -1.485749    1.948928    0.396365
H     -2.425600    0.714233    1.267414
H     -2.175592    0.571201   -0.467493
H      0.239605   -1.949209    1.207811
H     -1.463861   -1.549380    1.760371
H     -0.587831    0.415161    2.820261
H      0.993311    0.045346    2.302740
