21
2038_+.log
C      1.804716    0.005729   -1.555380
C      0.398976   -0.155384   -2.109956
C     -0.604058   -0.745835   -1.125479
C     -0.894597    0.113361    0.067925
C     -1.404804   -0.454201    1.329059
N      0.000332   -0.002628    1.258839
C      0.462099    1.164570    2.017614
H      2.489692    0.348042   -2.331866
H      2.199434   -0.942719   -1.177089
H      1.854801    0.748128   -0.752603
H      0.426791   -0.812207   -2.982654
H      0.025581    0.807553   -2.473165
H     -0.276565   -1.737487   -0.787306
H     -1.565744   -0.904862   -1.624410
H     -1.140482    1.152939   -0.127879
H     -2.021956    0.147271    1.984241
H     -1.531244   -1.526970    1.410431
H      0.684614   -0.748963    1.183772
H     -0.325385    1.916246    2.020930
H      1.354568    1.568616    1.541729
H      0.683800    0.860651    3.040055
