21
2040_+.log
C      1.428764    0.013145   -1.726739
C     -0.049276   -0.079765   -1.362368
C     -0.543224   -1.519409   -1.359443
C     -0.309074    0.670093   -0.078486
C     -1.397417    0.377700    0.870937
N     -0.012242   -0.004650    1.218952
C      0.722310    0.654313    2.304135
H      1.604689   -0.429662   -2.707523
H      2.053080   -0.528985   -1.009743
H      1.773437    1.048808   -1.764506
H     -0.624481    0.474058   -2.114435
H     -0.006219   -2.149485   -0.640186
H     -0.357520   -1.965634   -2.336916
H     -1.615266   -1.604309   -1.172097
H      0.060426    1.691008   -0.063111
H     -2.059514   -0.459992    0.694792
H     -1.797119    1.174850    1.484902
H      0.174678   -0.998586    1.126037
H      0.463402    1.711739    2.312517
H      1.791477    0.539662    2.131157
H      0.441614    0.200179    3.253862
