19
2043_+.log
C      1.363059   -0.000060   -2.596614
C      0.216765    0.366010   -2.041441
C     -0.537783   -0.458318   -1.046676
C     -0.625150    0.243205    0.294767
C     -1.139214   -0.552088    1.507109
N      0.000471    0.000019    2.343547
C      0.690117    0.448045    1.064332
H      1.869823    0.632297   -3.315483
H      1.825365   -0.957403   -2.375085
H     -0.226417    1.323141   -2.309564
H     -0.049960   -1.431360   -0.922219
H     -1.554694   -0.651691   -1.407049
H     -1.163126    1.189594    0.197505
H     -1.008639   -1.629331    1.408881
H     -2.117058   -0.325823    1.926233
H     -0.288227    0.784938    2.925448
H      0.504286   -0.661644    2.932186
H      1.120794    1.443051    1.144734
H      1.460960   -0.277620    0.807033
