17
2044_+.log
C      1.302843    0.000716   -2.762903
C      0.379151   -0.144430   -2.012284
C     -0.713352   -0.302988   -1.068290
C     -0.406146    0.421762    0.230643
C     -1.262030    0.101361    1.467489
N      0.000181    0.001190    2.304261
C      0.817819   -0.062290    1.023138
H      2.107800    0.122999   -3.451462
H     -1.642178    0.086030   -1.498035
H     -0.879725   -1.369176   -0.871889
H     -0.352314    1.497714    0.054165
H     -1.958069    0.846822    1.845306
H     -1.737867   -0.878261    1.432866
H      0.181135    0.847928    2.841556
H      0.071998   -0.795379    2.935665
H      1.085601   -1.099814    0.825947
H      1.709726    0.557815    1.060917
