21
2047_+.log
C      1.102071    0.008696   -2.103847
C     -0.162671    0.232233   -1.282108
C     -1.116323   -0.947844   -1.409536
C      0.221303    0.575146    0.151518
C     -0.864803    0.764400    1.224551
N     -0.002449    0.004212    2.215617
C      0.828123   -0.514362    1.055525
H      1.773642    0.869175   -2.056786
H      0.853108   -0.160605   -3.152182
H      1.652821   -0.871545   -1.756528
H     -0.669667    1.120540   -1.678351
H     -0.664452   -1.885100   -1.070937
H     -1.379254   -1.092843   -2.458391
H     -2.056008   -0.802565   -0.870961
H      0.880507    1.447703    0.141195
H     -1.770121    0.187259    1.046272
H     -1.114096    1.767165    1.564091
H     -0.468632   -0.690088    2.797635
H      0.527788    0.625169    2.824853
H      1.894889   -0.508057    1.266051
H      0.492628   -1.522681    0.818529
