17
2048_+.log
C      0.746049   -0.000034   -3.388978
C      0.256344    0.001265   -2.027505
C     -0.160835   -0.000693   -0.899422
C     -0.669920   -0.000037    0.446483
C     -0.133184   -1.066677    1.428284
N     -0.000392   -0.000025    2.500452
C     -0.131071    1.066278    1.427602
H      1.369232   -0.877603   -3.574244
H      1.345948    0.891450   -3.584499
H     -0.085960   -0.014901   -4.096212
H     -1.764380    0.001055    0.449267
H      0.859046   -1.426808    1.165136
H     -0.781125   -1.888620    1.723178
H     -0.783345    0.001024    3.152717
H      0.862651   -0.000754    3.041689
H     -0.777657    1.889423    1.722061
H      0.861876    1.424030    1.163992
