21
2051_+.log
C      0.970378   -0.000152   -2.121188
C      1.037416    0.563024   -0.703626
C      0.445206    1.962812   -0.631007
C      0.390326   -0.441690    0.217877
N      0.016963   -0.013494    1.603857
C     -1.027304   -0.436617    0.617289
C     -1.787412   -1.684274    0.925337
H      1.425145   -0.990780   -2.188102
H      1.507285    0.656338   -2.806614
H     -0.063088   -0.071954   -2.469738
H      2.091575    0.615427   -0.406813
H     -0.593221    1.992019   -0.969989
H      1.009791    2.624553   -1.288816
H      0.504649    2.415630    0.364766
H      0.871152   -1.415640    0.240772
H      0.091550    0.974274    1.820491
H      0.223059   -0.633305    2.379012
H     -1.613802    0.419143    0.300341
H     -1.132438   -2.484652    1.276706
H     -2.275806   -2.031010    0.012591
H     -2.563152   -1.500968    1.670513
