21
2055_+.log
C      0.165956    0.000558   -3.534597
C      0.849860    0.031525   -2.179343
C     -0.138864    0.184755   -1.032333
C      0.554201    0.218302    0.327503
C     -0.443243    0.372210    1.432173
C     -1.044169   -0.784590    2.112182
N      0.000431   -0.000062    2.816436
H      0.895720   -0.111043   -4.337639
H     -0.390936    0.922489   -3.719648
H     -0.536433   -0.833626   -3.607197
H      1.429472   -0.887350   -2.036034
H      1.570063    0.856366   -2.146378
H     -0.716396    1.106107   -1.169079
H     -0.860663   -0.639772   -1.057777
H      1.128056   -0.705279    0.473698
H      1.262442    1.051874    0.364686
H     -1.020648    1.291300    1.444535
H     -2.026509   -0.708369    2.559971
H     -0.723282   -1.781006    1.833997
H      0.920520   -0.415739    2.915359
H     -0.278197    0.580391    3.599561
