15
2062_+.log
C      1.272207   -0.000524   -3.249366
C      0.698188   -0.093426   -2.197168
C      0.007816   -0.244232   -0.979396
C     -0.000868    0.673065   -0.003015
C     -0.763686    0.508363    1.240344
C     -1.080945   -0.797407    1.835779
N     -0.001258    0.003297    2.454920
H      1.781880    0.087481   -4.182610
H     -0.561562   -1.165571   -0.869759
H      0.519199    1.616511   -0.130825
H     -1.403107    1.335952    1.534962
H     -0.727476   -1.703482    1.361420
H     -1.962800   -0.902417    2.454343
H     -0.167590    0.431204    3.359474
H      0.954725   -0.298784    2.296139
