13
2063_+.log
C      1.311087    0.000049   -3.428530
C      0.820895    0.082927   -2.331385
C      0.265393    0.178264   -1.097067
C     -0.227221    0.262712    0.003587
C     -0.847747    0.378771    1.273017
C     -1.177035   -0.807981    2.093585
N      0.000136   -0.000091    2.475085
H      1.743766   -0.071811   -4.401892
H     -1.419478    1.281912    1.468458
H     -1.997859   -0.752798    2.796906
H     -0.930816   -1.788453    1.707692
H      0.921803   -0.375867    2.274278
H     -0.050808    0.578859    3.307096
