19
2065_+.log
C      1.970456    0.000217   -1.766623
C      0.589234   -0.501179   -1.558087
C     -0.258029   -0.293632   -0.542383
C     -1.638752   -0.878666   -0.525540
C      0.137893    0.571132    0.583596
C     -0.814269    1.149847    1.548894
N     -0.000260   -0.000417    1.992554
H      2.649323   -0.844541   -1.916092
H      2.369188    0.609717   -0.956014
H      2.015049    0.590476   -2.686699
H      0.212842   -1.124051   -2.366757
H     -2.410733   -0.107067   -0.602533
H     -1.852314   -1.464171    0.377611
H     -1.770569   -1.557327   -1.366828
H      1.082628    1.090902    0.493360
H     -1.868256    0.922534    1.457952
H     -0.573599    2.079720    2.047423
H     -0.459873   -0.899557    2.081717
H      0.746893    0.156075    2.658767
