21
2070_+.log
C      1.776613    0.000847   -0.793447
C      0.254426   -0.076451   -0.672971
C     -0.405841    0.667420   -1.836947
C     -0.201082   -1.533040   -0.665387
C     -0.157628    0.673304    0.577375
C     -1.341882    0.374205    1.395457
N     -0.000780   -0.000830    1.906556
H      2.100263   -0.471954   -1.721959
H      2.280522   -0.516734    0.028163
H      2.125305    1.036367   -0.811015
H     -0.116483    0.200002   -2.779495
H     -0.090716    1.712964   -1.876163
H     -1.495967    0.637566   -1.770027
H      0.130769   -2.011773   -1.587826
H     -1.287750   -1.636665   -0.630734
H      0.240086   -2.122996    0.146501
H      0.200051    1.697322    0.628238
H     -1.960722   -0.479366    1.152588
H     -1.822835    1.164407    1.957277
H      0.389361    0.517855    2.684799
H      0.238379   -0.986744    1.896502
