17
2072_+.log
C      2.275662    0.000409   -2.583380
C      1.094575   -0.092489   -1.750051
C      0.093704   -0.170488   -1.087888
C     -1.108627   -0.270558   -0.279341
C     -0.984855    0.524477    0.994061
C     -1.451061    0.012021    2.291321
N     -0.000282   -0.000383    1.982497
H      2.445798    1.031523   -2.900247
H      2.155670   -0.614134   -3.478374
H      3.163463   -0.346602   -2.050684
H     -1.980446    0.116017   -0.818865
H     -1.338576   -1.317517   -0.045133
H     -0.900291    1.599688    0.881494
H     -1.728684    0.699549    3.079950
H     -1.893946   -0.974890    2.342144
H      0.444335   -0.885517    1.757771
H      0.606271    0.654078    2.463798
