19
2074_+.log
C      2.252976   -0.017322   -0.676618
C      0.981763    0.282744   -1.464756
C     -0.292982   -0.080371   -0.757737
C     -1.188061   -0.938177   -1.239229
C     -0.560034    0.633921    0.516097
C     -1.460179    0.137330    1.565484
N     -0.001333    0.016624    1.778855
H      3.132117    0.228346   -1.273153
H      2.321193   -1.077309   -0.417276
H      2.326580    0.574329    0.240870
H      1.005588   -0.248255   -2.417755
H      0.953230    1.351362   -1.710510
H     -1.016793   -1.444638   -2.181837
H     -2.129301   -1.149042   -0.744782
H     -0.372363    1.704268    0.514358
H     -1.958080   -0.814555    1.438080
H     -1.945502    0.840867    2.229373
H      0.443565    0.609548    2.470956
H      0.411049   -0.905759    1.683943
