17
2076_+.log
C      1.416295    0.046584   -3.096900
C      0.434433   -0.819935   -2.308948
C      0.136064   -0.290744   -0.994459
C     -0.103683    0.170434    0.092529
C     -0.412641    0.754485    1.348840
C     -1.463117    0.204709    2.231900
N     -0.051000   -0.061853    2.579545
H      1.595295   -0.402866   -4.073856
H      2.371631    0.129507   -2.577743
H      1.017765    1.049839   -3.250478
H     -0.509631   -0.926635   -2.853883
H      0.830193   -1.833908   -2.185282
H     -0.156926    1.800361    1.492673
H     -1.970889    0.861229    2.926576
H     -2.007471   -0.671380    1.905207
H      0.354399    0.412266    3.379385
H      0.314577   -0.992245    2.404841
