23
2077_+.log
C      2.180138   -0.000329   -2.164854
C      0.728842   -0.307844   -2.497281
C     -0.282511    0.314241   -1.542345
C     -0.208193   -0.223992   -0.118346
C     -1.256719    0.405142    0.790569
C     -1.316192   -0.188445    2.179739
N      0.000024    0.000365    2.893762
H      2.847089   -0.403119   -2.928752
H      2.492634   -0.437133   -1.212034
H      2.354666    1.078302   -2.114046
H      0.575940   -1.392457   -2.531467
H      0.509009    0.055779   -3.504718
H     -1.294224    0.140678   -1.924091
H     -0.144047    1.401946   -1.522630
H      0.804972   -0.037977    0.266102
H     -0.343268   -1.313049   -0.136098
H     -2.250816    0.266600    0.355320
H     -1.111568    1.490314    0.854521
H     -1.493419   -1.264921    2.156979
H     -2.075917    0.280328    2.805743
H      0.757613   -0.418209    2.348761
H     -0.001241   -0.425637    3.821921
H      0.215861    0.993693    3.001921
