19
2100_+.log
C      1.003278   -0.000155   -3.661524
C      0.539277   -0.473559   -2.339045
C      0.231336    0.311775   -1.297896
C     -0.220758   -0.220818   -0.043698
C     -0.567695    0.509522    1.029529
C     -1.059702   -0.105419    2.278764
N      0.000219   -0.000253    3.380694
H      1.980551   -0.431542   -3.901071
H      1.077534    1.086432   -3.707819
H      0.321644   -0.340048   -4.447911
H      0.440474   -1.551523   -2.216323
H      0.314293    1.391865   -1.390806
H     -0.300151   -1.306679    0.015153
H     -0.539412    1.595412    0.983176
H     -1.943402    0.386356    2.690927
H     -1.264281   -1.170348    2.167008
H      0.234647    0.978789    3.554515
H      0.857912   -0.466844    3.079066
H     -0.308958   -0.416029    4.262413
