21
2105_+.log
C     -1.865730   -2.415471    0.000000
C     -0.676372   -1.521988    0.000001
C     -0.728705   -0.194807   -0.000001
C      0.410111    0.782069   -0.000000
C      0.411442    1.636191    1.260577
C      0.411442    1.636192   -1.260577
N      1.714291    0.002063   -0.000001
H     -1.856211   -3.068667   -0.877009
H     -2.796555   -1.848507   -0.000002
H     -1.856213   -3.068665    0.877011
H      0.280275   -2.047846    0.000002
H     -1.699264    0.295047   -0.000001
H      1.232582    2.358611    1.258333
H      0.467348    1.022889    2.162953
H     -0.520334    2.200060    1.307698
H      0.467347    1.022890   -2.162954
H      1.232582    2.358612   -1.258333
H     -0.520334    2.200061   -1.307698
H      1.776744   -0.594767   -0.827437
H      1.776744   -0.594769    0.827435
H      2.511681    0.639701    0.000000
