19
2114_+.log
C      1.684791   -0.000258   -1.332326
C      0.418709   -0.530657   -0.730998
C      0.145060   -1.833913   -0.638142
C     -0.550931    0.468777   -0.205289
C     -1.697878    0.786913   -0.793854
C     -0.146476    1.101289    1.092323
N      0.000540   -0.000227    2.117665
H      2.360811   -0.809224   -1.607333
H      2.218992    0.675449   -0.656869
H      1.454056    0.580941   -2.229730
H      0.838246   -2.581942   -1.007013
H     -0.802357   -2.189792   -0.245705
H     -1.981970    0.343064   -1.740472
H     -2.378177    1.515139   -0.364825
H      0.828495    1.589007    1.034234
H     -0.881555    1.812041    1.466240
H      0.477807   -0.791619    1.656586
H     -0.915008   -0.337582    2.420136
H      0.529316    0.286342    2.942398
