23
2130_+.log
C      1.447250   -0.002721   -1.275809
C     -0.047267    0.085211   -0.971820
C     -0.673051    1.180820   -1.832795
C     -0.726406   -1.248058   -1.279901
C     -0.278881    0.484181    0.499387
C      0.277142   -0.493652    1.508746
N     -0.001367    0.001353    2.907393
H      1.938794   -0.821345   -0.742050
H      1.962753    0.930112   -1.029843
H      1.600611   -0.188038   -2.340589
H     -1.746293    1.272776   -1.645382
H     -0.540388    0.952050   -2.891914
H     -0.209376    2.152489   -1.642720
H     -0.270191   -2.086761   -0.745964
H     -0.641393   -1.472628   -2.344877
H     -1.792468   -1.221267   -1.036762
H      0.174840    1.469793    0.664645
H     -1.359008    0.593325    0.660839
H     -0.183655   -1.478881    1.439345
H      1.359066   -0.604497    1.436641
H     -1.006789    0.107269    3.059439
H      0.425683    0.917939    3.057887
H      0.359737   -0.635569    3.620258
