23
2138_+.log
C      2.012597   -0.035360   -0.342348
C      0.621588    0.575823   -0.490348
C      0.235975    0.629539   -1.964541
C     -0.462650   -0.121437    0.359669
C     -1.807943    0.579417    0.279241
C     -0.597881   -1.613151    0.112334
N     -0.012217    0.026730    1.816686
H      2.394846   -0.058728    0.684672
H      2.730387    0.562841   -0.905007
H      2.056103   -1.049344   -0.744560
H      0.664501    1.614802   -0.131061
H      0.167491   -0.369823   -2.399905
H      1.005363    1.169120   -2.518236
H     -0.707251    1.148232   -2.135054
H     -2.510747    0.180104    1.015901
H     -2.251910    0.415554   -0.701165
H     -1.716266    1.659004    0.427110
H      0.334716   -2.153549    0.285795
H     -0.892147   -1.784463   -0.922639
H     -1.376618   -2.050105    0.743113
H      0.900548   -0.409901    1.955839
H     -0.680525   -0.413674    2.450759
H      0.067195    1.013056    2.071934
