19
2146_+.log
C      2.134795    0.002889   -2.656395
C      0.903230    0.011132   -1.890324
C     -0.141509    0.016133   -1.293257
C     -1.404698    0.024545   -0.572467
C     -1.241370    0.440274    0.894559
C     -0.292012   -0.493928    1.606865
N     -0.001235   -0.000369    3.001162
H      2.604782   -0.982776   -2.635534
H      2.848725    0.731261   -2.265573
H      1.933692    0.258093   -3.699316
H     -2.103128    0.718117   -1.048967
H     -1.874628   -0.963914   -0.626002
H     -0.848109    1.462480    0.926055
H     -2.221193    0.440350    1.382806
H     -0.698134   -1.501066    1.712690
H      0.664676   -0.551312    1.084971
H     -0.857830    0.069471    3.554643
H      0.420248    0.930741    2.972685
H      0.642457   -0.620356    3.496805
