17
2149_+.log
C      2.673463   -0.000167   -1.648884
C      1.350896    0.011736   -1.061559
C      0.217313    0.033049   -0.642103
C     -1.078353    0.035648   -0.053479
C     -2.179143    0.517158   -0.632200
C     -1.122639   -0.581827    1.316773
N      0.000714    0.000059    2.131420
H      2.596472   -0.115410   -2.732612
H      3.271603   -0.827556   -1.261369
H      3.201317    0.934623   -1.445353
H     -2.151290    0.922232   -1.635259
H     -3.135777    0.499223   -0.123296
H     -0.939376   -1.657585    1.275451
H     -2.059958   -0.389399    1.835668
H      0.840187   -0.006131    1.529580
H      0.185368   -0.525082    2.986581
H     -0.188923    0.973127    2.378948
