21
2158_+.log
C      0.619396   -0.002129   -3.630121
C     -0.391141   -0.399327   -2.558019
C      0.188562   -0.344441   -1.187592
C     -0.256160    0.415796   -0.193169
C      0.367448    0.458964    1.168087
C     -0.581559   -0.118421    2.199681
N      0.000431   -0.001254    3.589813
H      0.177434   -0.088315   -4.623851
H      1.501579   -0.646154   -3.601809
H      0.951401    1.029227   -3.495691
H     -1.275987    0.240584   -2.612369
H     -0.730065   -1.423888   -2.751473
H      1.066829   -0.968779   -1.016674
H     -1.118587    1.060517   -0.350881
H      1.304203   -0.108308    1.163221
H      0.610025    1.495934    1.437843
H     -1.535947    0.409181    2.221358
H     -0.770989   -1.178412    2.029040
H      0.181527    0.976866    3.825709
H      0.891147   -0.498862    3.652461
H     -0.624731   -0.385897    4.300674
