21
2161_+.log
C      1.930538   -0.001376   -2.557137
C      0.682574    0.752482   -2.106082
C      0.006850    0.091045   -0.958699
C     -0.268651    0.673470    0.205581
C     -0.978207    0.022565    1.346729
C     -1.485461   -1.384881    1.141021
N     -0.002505    0.000371    2.531565
H      2.374784    0.486145   -3.425530
H      1.694568   -1.030061   -2.839445
H      2.684147   -0.030885   -1.767277
H      0.925932    1.787792   -1.853837
H     -0.029309    0.789357   -2.939431
H     -0.280988   -0.946904   -1.118766
H     -0.009650    1.722173    0.348547
H     -1.791662    0.666230    1.697131
H     -0.685910   -2.071197    0.852227
H     -2.232114   -1.385173    0.347296
H     -1.969611   -1.769323    2.041654
H      0.799435   -0.590359    2.300301
H     -0.440574   -0.365243    3.379556
H      0.353050    0.937080    2.730206
