23
2171_+.log
C      2.160033    0.001376   -0.659831
C      0.865801    0.798985   -0.610984
C     -0.431447    0.009566   -0.354651
C     -1.599170    0.988769   -0.228955
C     -0.716910   -0.966394   -1.496340
C     -0.325231   -0.840635    0.907567
N      0.000572   -0.002017    2.115843
H      2.998664    0.660472   -0.888054
H      2.136710   -0.769285   -1.431637
H      2.403119   -0.494902    0.286814
H      0.957655    1.609437    0.127532
H      0.733267    1.324569   -1.560799
H     -2.540510    0.472580   -0.022917
H     -1.726254    1.538472   -1.163001
H     -1.441760    1.751930    0.543342
H     -1.661519   -1.492950   -1.338889
H      0.070222   -1.714742   -1.606794
H     -0.796322   -0.422255   -2.439013
H      0.464938   -1.587945    0.834084
H     -1.267006   -1.345347    1.128093
H      0.902857    0.462318    1.991803
H      0.042016   -0.560803    2.969076
H     -0.704907    0.726781    2.243346
