23
2173_+.log
C      2.348555    0.015154   -0.893081
C      1.132595   -0.896821   -0.838735
C     -0.223440   -0.193812   -0.709375
C     -1.365469   -1.203436   -0.727211
C     -0.280947    0.767468    0.478864
C     -1.565264    1.548930    0.639548
N     -0.037929   -0.018040    1.756568
H      3.247863   -0.561313   -1.112964
H      2.540846    0.544776    0.045864
H      2.242380    0.768418   -1.677739
H      1.251368   -1.646641   -0.041282
H      1.094845   -1.493808   -1.753566
H     -0.335395    0.460716   -1.581950
H     -1.325172   -1.904365    0.115673
H     -1.298184   -1.817947   -1.626023
H     -2.348466   -0.731269   -0.734115
H      0.564724    1.455664    0.422612
H     -2.425828    0.902373    0.823180
H     -1.760608    2.104993   -0.278149
H     -1.496310    2.277269    1.451333
H     -0.779069   -0.709237    1.890701
H     -0.024325    0.593065    2.573987
H      0.851316   -0.519661    1.708597
