19
2179_+.log
C      1.446590   -0.000744   -3.084359
C     -0.048520    0.117241   -2.796281
C     -0.368096    0.018646   -1.382415
C     -0.634117   -0.068112   -0.212868
C     -0.946346   -0.169123    1.199543
C      0.304697    0.096023    2.020742
N      0.000388   -0.000543    3.496340
H      1.625398    0.075892   -4.157442
H      1.837412   -0.960233   -2.742485
H      2.005925    0.794807   -2.589655
H     -0.432437    1.070281   -3.173822
H     -0.597786   -0.666573   -3.327659
H     -1.728923    0.553851    1.464591
H     -1.340074   -1.168231    1.428035
H      1.086068   -0.633905    1.810895
H      0.697326    1.097002    1.844139
H     -0.352206   -0.929445    3.738191
H     -0.714208    0.678558    3.767930
H      0.830998    0.175684    4.064961
