16
2201_+.log
C      0.462846   -0.641563   -2.281649
C      0.252104   -0.847784   -0.816985
C     -0.569337    0.111511   -0.033792
C     -1.376110    1.257314   -0.498659
C      0.061546   -0.021489    1.244431
N      0.000017    0.000198    2.464521
N      1.042818   -0.000831    0.121581
H      1.370875   -1.155362   -2.600285
H      0.539111    0.411798   -2.554359
H     -0.373280   -1.082221   -2.827973
H      0.255742   -1.883726   -0.489225
H     -1.220899    1.477129   -1.553567
H     -1.210589    2.145655    0.111362
H     -2.423593    0.962254   -0.365836
H      0.875260    0.025319    2.982089
H      1.627581    0.780473   -0.167470
