16
2209_+.log
C     -2.074539    0.125706   -0.502093
C     -0.775855   -0.600807   -0.237431
C      0.416391   -0.409367   -1.180566
C      0.973266    0.945323   -1.123913
C      0.115376   -0.147939    0.902041
N      0.000377    0.000474    2.114312
N      1.308261   -0.000544   -0.027728
H     -2.738503    0.007676    0.354864
H     -2.573507   -0.294807   -1.375982
H     -1.924848    1.193854   -0.666837
H     -0.958172   -1.671708   -0.097048
H      0.767324   -1.135356   -1.902553
H      0.369321    1.793309   -0.824029
H      1.823081    1.167388   -1.758743
H      0.820749    0.269463    2.651836
H      2.267651   -0.288989    0.146985
