18
2216_+.log
C      1.046991   -0.240558   -0.895842
C     -0.331600    0.374422   -1.114416
C     -0.992998   -0.086632   -2.396960
C     -1.076906   -0.009242    0.167145
C     -0.047743   -0.003021    1.252262
N      0.000307   -0.000623    2.488830
N      1.309145    0.000034    0.556276
H      1.843869    0.194702   -1.496650
H      1.029241   -1.321207   -1.048895
H      1.740060    0.913829    0.714927
H     -0.219656    1.465209   -1.139122
H     -1.125770   -1.171724   -2.403516
H     -0.398215    0.190076   -3.269290
H     -1.975388    0.373736   -2.509403
H     -1.486151   -1.023720    0.082502
H     -1.905231    0.655674    0.414259
H     -0.911203    0.006948    2.942257
H      1.918047   -0.689489    1.000180
