21
2236_+.log
C      1.073703   -0.000154   -3.321833
C      0.225093    0.594856   -2.211818
C      0.537259   -0.021896   -0.853141
C     -0.311435    0.590281    0.239360
N      0.000272    0.000141    1.562828
C     -0.951438    0.055905    2.689963
C     -0.663659   -1.230650    2.035729
H      0.830024    0.455806   -4.282029
H      0.909555   -1.076462   -3.414924
H      2.138678    0.162497   -3.139018
H     -0.836524    0.449481   -2.439332
H      0.384975    1.677252   -2.163492
H      1.598958    0.128127   -0.622322
H      0.369094   -1.103886   -0.891894
H     -1.377606    0.425428    0.067190
H     -0.144984    1.666335    0.329055
H      0.979321    0.081739    1.820375
H     -1.872410    0.574579    2.457397
H     -0.507593    0.278062    3.651795
H     -0.013426   -1.945761    2.522543
H     -1.378282   -1.636409    1.331217
