21
2335_+.log
C      2.254041   -0.001622   -2.307633
C      1.232447   -0.517378   -1.306153
C      0.984095    0.496914   -0.209709
N     -0.000928    0.000693    0.775831
C     -0.756122    0.917320    1.654914
C     -1.468574    0.179662    0.595677
C     -2.358781   -0.982376    0.890680
H      2.426054   -0.741663   -3.089054
H      3.213826    0.204255   -1.828927
H      1.911577    0.916492   -2.790323
H      0.290238   -0.745014   -1.815043
H      1.590265   -1.453261   -0.862559
H      1.898326    0.727766    0.342757
H      0.586489    1.433340   -0.607719
H      0.259650   -0.882926    1.204298
H     -0.847128    0.586116    2.682116
H     -0.506828    1.960953    1.512458
H     -1.677334    0.734316   -0.313288
H     -2.055115   -1.507423    1.799440
H     -2.377757   -1.687397    0.058416
H     -3.375903   -0.617130    1.044767
