21
2337_+.log
C      1.822648   -0.003611   -2.679374
C      1.208329   -0.563318   -1.405731
C      0.601563    0.536783   -0.560839
N      0.001157    0.005320    0.688120
C     -0.709066    0.949781    1.636574
C     -1.803091   -0.099959    1.857341
C     -1.267056   -0.824221    0.617714
H      2.258159   -0.805797   -3.274890
H      2.615768    0.713796   -2.457795
H      1.073507    0.497657   -3.296217
H      0.439719   -1.301118   -1.658692
H      1.976166   -1.088000   -0.825212
H      1.352760    1.272540   -0.260911
H     -0.195104    1.063677   -1.091422
H      0.717224   -0.516025    1.194444
H     -0.087815    1.259886    2.474227
H     -1.037225    1.820061    1.069720
H     -1.666917   -0.670082    2.775282
H     -2.829160    0.253407    1.803418
H     -1.789845   -0.571702   -0.303873
H     -1.083126   -1.895131    0.664450
