17
2339_+.log
C      2.187799    0.000749   -2.112092
C      1.460299    0.490656   -1.296115
C      0.579217    1.067023   -0.305928
N     -0.000486   -0.000229    0.555793
C     -1.037985    0.366435    1.598845
C     -1.839746   -0.885829    1.229061
C     -0.992693   -0.978727   -0.045383
H      2.842945   -0.420149   -2.842638
H      1.109176    1.765641    0.348402
H     -0.256872    1.598712   -0.767470
H      0.769051   -0.515564    0.984553
H     -0.619974    0.459698    2.598888
H     -1.511396    1.301042    1.299793
H     -1.670542   -1.715710    1.913752
H     -2.908245   -0.748820    1.087778
H     -1.446577   -0.512695   -0.919103
H     -0.538532   -1.927153   -0.320996
