17
2344_+.log
C      3.402309    0.003045   -0.130663
C      2.264411    0.319885   -0.330445
C      0.885960    0.687556   -0.550059
N     -0.000201   -0.005191    0.455646
C     -1.437216    0.289804    0.303454
C     -2.225342   -0.523022   -0.663926
C     -2.422454   -0.705646    0.810457
H      4.421252   -0.270879    0.034253
H      0.723164    1.760906   -0.430146
H      0.529114    0.393701   -1.539133
H      0.157455   -1.013180    0.378283
H      0.315776    0.250806    1.395340
H     -1.629392    1.349749    0.411997
H     -1.720783   -1.318090   -1.202231
H     -2.982539   -0.007984   -1.239883
H     -3.316535   -0.315116    1.278027
H     -2.050401   -1.620869    1.257638
