21
2346_+.log
C      1.963281   -0.002420    0.115451
C      0.507566   -0.429078    0.193133
C      0.342994   -1.937612    0.132231
N      0.004937    0.003904    1.565731
C     -0.326917    0.260276   -0.864583
C     -1.794504    0.533077   -0.748974
C     -0.817869    1.671187   -0.772799
H      2.572781   -0.491367    0.880389
H      2.071276    1.081236    0.205705
H      2.366273   -0.290739   -0.855712
H      0.929514   -2.443721    0.903960
H      0.698904   -2.295426   -0.834214
H     -0.705245   -2.232122    0.224016
H      0.560007   -0.437799    2.300240
H     -0.971655   -0.265570    1.698061
H      0.077425    1.017036    1.676987
H      0.005448   -0.046730   -1.850857
H     -2.410197    0.354387   -1.620409
H     -2.321258    0.339778    0.181050
H     -0.685075    2.241804    0.141937
H     -0.753530    2.287289   -1.659922
