21
2349_+.log
C      2.191624   -0.007273   -1.071189
C      1.324544   -0.598986    0.030766
C      0.356027    0.423304    0.606351
N      0.003603    0.009769    2.034937
C     -0.956148    0.628439   -0.101019
C     -1.227219    0.144619   -1.492454
C     -1.893808   -0.531194   -0.345377
H      2.835945   -0.776508   -1.497145
H      2.834041    0.784414   -0.679467
H      1.595825    0.416408   -1.880096
H      1.982376   -0.962835    0.828842
H      0.775748   -1.473787   -0.332848
H      0.871664    1.380418    0.725967
H     -0.507472   -0.875603    2.013318
H     -0.606825    0.700895    2.474484
H      0.834438   -0.107661    2.617167
H     -1.439195    1.566833    0.155488
H     -1.816112    0.792915   -2.127300
H     -0.455183   -0.407147   -2.011129
H     -1.556706   -1.536788   -0.113181
H     -2.950366   -0.367243   -0.178533
