17
2357_+.log
C      2.918471   -0.002865   -1.654958
C      2.302702   -0.449444   -0.569415
C      0.897141   -0.940362   -0.586155
N      0.000690    0.003066    0.176558
C     -1.446437   -0.403686    0.231085
C     -2.207342    0.564991    0.983842
C     -2.822535    1.379091    1.611210
H      3.948586    0.330120   -1.618831
H      2.427381    0.028230   -2.622827
H      2.830306   -0.498993    0.380098
H      0.498791   -0.998890   -1.599702
H      0.787904   -1.915586   -0.106378
H      0.345594    0.106464    1.134134
H      0.070062    0.935588   -0.238903
H     -1.796165   -0.485498   -0.800656
H     -1.484128   -1.396107    0.686169
H     -3.383546    2.096612    2.168821
