15
2358_+.log
C     -0.000004    3.355292    0.807060
C     -0.000003    2.413841    0.066585
C     -0.000002    1.266778   -0.808609
N      0.000007   -0.000000    0.005162
C      0.000004   -1.266778   -0.808609
C     -0.000002   -2.413841    0.066585
C     -0.000006   -3.355292    0.807060
H     -0.000004    4.203802    1.455820
H     -0.886717    1.238875   -1.446759
H      0.886706    1.238883   -1.446769
H      0.814406    0.000002    0.625381
H     -0.814384   -0.000002    0.625391
H     -0.886707   -1.238876   -1.446765
H      0.886716   -1.238882   -1.446764
H     -0.000011   -4.203802    1.455820
