21
2359_+.log
C      1.805092   -0.001038    0.488721
C      0.313599   -0.225575    0.649832
C     -0.091978   -1.652735    0.339866
N      0.002155    0.001525    2.132818
C     -0.535395    0.805747   -0.105335
C     -0.328676    0.779655   -1.587326
C     -1.264620    0.429065   -2.456482
H      2.385871   -0.689558    1.108356
H      2.093995    1.025490    0.730655
H      2.086243   -0.188027   -0.547194
H      0.498453   -2.375175    0.909423
H      0.076786   -1.845197   -0.719480
H     -1.153899   -1.825693    0.535260
H      0.521609   -0.654829    2.718896
H     -0.994427   -0.129067    2.317828
H      0.254738    0.950193    2.417251
H     -0.287703    1.807698    0.272475
H     -1.594935    0.626112    0.110688
H      0.643589    1.102260   -1.950262
H     -2.258009    0.126122   -2.140077
H     -1.076277    0.447021   -3.522975
