19
2360_+.log
C      2.193317   -0.001518    0.372909
C      0.713839   -0.254152    0.168341
C      0.415813   -1.691401   -0.215404
N      0.002304    0.001760    1.490915
C      0.102098    0.746118   -0.830660
C     -1.349962    0.733366   -0.788255
C     -2.544150    0.701166   -0.662605
H      2.625128   -0.699034    1.094382
H      2.392254    1.021227    0.704378
H      2.715668   -0.147018   -0.573634
H      0.800313   -2.391458    0.530845
H      0.909913   -1.919419   -1.160436
H     -0.654817   -1.860887   -0.349063
H      0.201650   -0.733479    2.169960
H     -1.011935    0.035451    1.305499
H      0.276572    0.897896    1.897698
H      0.460914    0.483587   -1.829718
H      0.470121    1.757922   -0.626283
H     -3.610257    0.692057   -0.605869
