23
2361_+.log
C      2.431982   -0.005651    0.849163
C      1.305626   -0.061794   -0.162966
C      1.346374   -1.299571   -1.031005
N     -0.000000   -0.000000    0.600970
C     -1.305626    0.061793   -0.162966
C     -2.431982    0.005652    0.849163
C     -1.346373    1.299570   -1.031005
H      2.380261    0.889139    1.475181
H      3.387130    0.020870    0.324354
H      2.436544   -0.889050    1.494018
H      1.319339    0.838178   -0.780268
H      1.246060   -2.210997   -0.434112
H      2.314413   -1.344153   -1.530909
H      0.581520   -1.298451   -1.808275
H     -0.036022   -0.813465    1.220257
H      0.036022    0.813464    1.220258
H     -1.319339   -0.838178   -0.780268
H     -2.436543    0.889049    1.494019
H     -2.380262   -0.889139    1.475180
H     -3.387131   -0.020868    0.324355
H     -1.246060    2.210997   -0.434112
H     -2.314413    1.344153   -1.530910
H     -0.581519    1.298450   -1.808274
