21
2368_+.log
C      2.169998   -0.002040    0.423217
C      0.705894   -0.331525    0.165651
C     -0.224290    0.411828    1.105763
N      0.002977    0.001735    2.537949
C      0.300410    0.001847   -1.278735
C     -1.074703   -0.463860   -1.635526
C     -2.073746    0.330294   -1.995113
H      2.807048   -0.537646   -0.281612
H      2.518249   -0.295523    1.420357
H      2.363391    1.066661    0.294546
H      0.546345   -1.409934    0.310715
H     -1.272123    0.208382    0.880730
H     -0.057976    1.490369    1.066272
H     -0.181514   -0.995831    2.662865
H     -0.601128    0.515641    3.181610
H      0.973961    0.170346    2.810096
H      1.032418   -0.476136   -1.937863
H      0.391111    1.081044   -1.444472
H     -1.237198   -1.540527   -1.607849
H     -1.949873    1.407106   -2.064870
H     -3.044941   -0.067700   -2.264010
