19
2369_+.log
C      2.167187   -0.002093    0.330663
C      0.687054   -0.254539    0.083129
C     -0.204802    0.491997    1.057652
N     -0.001652   -0.000588    2.465921
C      0.290615    0.149260   -1.346939
C     -1.107849   -0.108756   -1.642781
C     -2.266635   -0.331312   -1.861033
H      2.771126   -0.529639   -0.408814
H      2.511007   -0.362318    1.306349
H      2.407205    1.062231    0.254472
H      0.474147   -1.327454    0.181203
H     -1.259668    0.345069    0.820811
H      0.012805    1.562110    1.070666
H     -0.229879   -0.994763    2.537569
H     -0.589658    0.504249    3.131501
H      0.972543    0.113071    2.754387
H      0.515810    1.210343   -1.507267
H      0.922344   -0.405504   -2.046732
H     -3.289220   -0.524479   -2.092990
