21
2374_+.log
C      2.165905   -0.003816    0.071249
C      1.050950   -1.027729    0.220703
C     -0.254650   -0.502856    0.796555
N      0.002832    0.005044    2.205053
C     -0.930655    0.616170    0.012608
C     -1.348218    0.160956   -1.350808
C     -0.953342    0.733395   -2.477518
H      3.049908   -0.483969   -0.349181
H      2.489147    0.432605    1.023397
H      1.891265    0.809705   -0.601557
H      1.391190   -1.876881    0.824253
H      0.802204   -1.442132   -0.759224
H     -0.954498   -1.332785    0.927302
H      0.679858    0.770944    2.180990
H      0.386812   -0.730124    2.801569
H     -0.853732    0.356124    2.636891
H     -0.264053    1.480199   -0.072831
H     -1.820281    0.946910    0.566994
H     -2.037477   -0.680148   -1.386740
H     -0.281505    1.586201   -2.483839
H     -1.302638    0.379790   -3.439843
