19
2375_+.log
C      2.561458    0.000726    0.509829
C      1.220173    0.483174   -0.019890
C      0.019840   -0.231267    0.568064
N     -0.000511    0.000351    2.067053
C     -1.325610    0.220446    0.003669
C     -1.442860   -0.122514   -1.400516
C     -1.534904   -0.418247   -2.557817
H      3.375213    0.482485   -0.032509
H      2.679788   -1.078166    0.382239
H      2.726726    0.244409    1.565910
H      1.164898    0.321685   -1.099091
H      1.105829    1.564667    0.126429
H      0.125352   -1.313204    0.452250
H     -0.140290    0.991797    2.276905
H      0.892189   -0.280064    2.479238
H     -0.746452   -0.526668    2.524760
H     -2.147287   -0.252889    0.556204
H     -1.435155    1.305670    0.129225
H     -1.629121   -0.677300   -3.588263
