19
2381_+.log
C     -2.763418    2.324361    0.000000
C     -1.298507    1.915215   -0.000000
C     -1.155392    0.408414   -0.000000
N      0.286345    0.000003   -0.000000
C      0.526728   -1.485189    0.000000
C      1.944180   -1.760147    0.000000
C      3.123726   -1.968731    0.000000
H     -2.851223    3.410615    0.000000
H     -3.282527    1.949813    0.884747
H     -3.282527    1.949813   -0.884747
H     -0.798225    2.332297    0.881264
H     -0.798225    2.332297   -0.881264
H     -1.608039   -0.042790   -0.885153
H     -1.608039   -0.042790    0.885153
H      0.757168    0.403560    0.813621
H      0.757168    0.403560   -0.813621
H      0.031860   -1.890440   -0.885570
H      0.031860   -1.890440    0.885570
H      4.172455   -2.170377    0.000000
