18
2398_+.log
C     -1.790666   -0.549906   -1.832203
C     -1.389763   -0.778467   -0.383850
C     -0.330212    0.218359    0.076882
N     -0.000145   -0.000003    1.536869
C      0.935101    0.994740    2.139280
C      0.913949    0.113513   -0.674699
N      1.906535    0.000832   -1.241067
H     -2.560237   -1.267187   -2.116220
H     -0.943708   -0.684501   -2.507313
H     -2.197809    0.452389   -1.981123
H     -1.004797   -1.795422   -0.254101
H     -2.263698   -0.666362    0.267720
H     -0.706611    1.243486    0.002160
H      0.389983   -0.941101    1.638103
H     -0.882960   -0.001639    2.053215
H      1.874812    0.962709    1.591300
H      1.095997    0.731108    3.183046
H      0.485361    1.982982    2.065000
