16
2414_+.log
C     -1.935303    0.744658   -0.482089
C     -0.466027    0.825965   -0.105408
C     -0.209778    0.379798    1.257596
N     -0.000599    0.000880    2.321263
N      0.356848   -0.000249   -1.044168
C      1.720499   -0.490096   -0.733647
C      0.610334   -1.447631   -0.846525
H     -2.509879    1.379452    0.192748
H     -2.311829   -0.275245   -0.395802
H     -2.090132    1.109355   -1.499511
H     -0.094168    1.850685   -0.207731
H      0.211025    0.277042   -2.010520
H      2.428437   -0.380989   -1.545256
H      2.068312   -0.217578    0.255601
H      0.179531   -1.845057    0.064739
H      0.498797   -2.047662   -1.740428
