21
2427_+.log
C      2.460483    0.001837    0.588526
C      1.224888    0.821165    0.875281
N      0.000043   -0.000012    0.762095
C     -1.348116    0.593149    0.642141
C     -0.831254   -0.208171   -0.486543
C     -0.369540    0.471267   -1.740643
C     -1.315732   -1.620612   -0.646361
H      3.342656    0.631569    0.709846
H      2.463522   -0.385734   -0.431366
H      2.560313   -0.835081    1.283871
H      1.123574    1.660030    0.188405
H      1.231817    1.223617    1.890849
H      0.033980   -0.829253    1.347311
H     -2.092278    0.177584    1.310614
H     -1.334174    1.673864    0.568061
H      0.431377   -0.091087   -2.223103
H     -0.045972    1.499152   -1.582853
H     -1.213819    0.501818   -2.432505
H     -0.556184   -2.243370   -1.122373
H     -2.200054   -1.621852   -1.286346
H     -1.600897   -2.071978    0.306934
