19
2428_+.log
C      2.466013   -0.002340    0.805097
C      1.234893    0.691487    1.335005
N      0.000676    0.000790    0.899929
C     -1.304575    0.681358    0.869748
C     -0.667818    0.312521   -0.411702
C     -1.139250   -0.817860   -1.222831
C     -0.907717   -0.897780   -2.525631
H      3.351549    0.534884    1.146482
H      2.483660   -0.019995   -0.285855
H      2.542267   -1.027222    1.175061
H      1.214098    0.713520    2.426976
H      1.157796    1.719759    0.976932
H     -0.031100   -0.983035    1.152245
H     -2.135151    0.088788    1.233447
H     -1.271459    1.709201    1.207743
H     -0.139496    1.100242   -0.938166
H     -1.730451   -1.578193   -0.717053
H     -0.342613   -0.138543   -3.056150
H     -1.291552   -1.723045   -3.112202
