21
2432_+.log
C      2.484023   -0.000765    0.396080
C      1.256446    0.725960    0.890119
N      0.000484    0.000453    0.572445
C     -1.312919    0.649828    0.945591
C     -1.913593    0.227006   -0.395038
C     -0.492236   -0.100178   -0.878913
C     -0.231149   -1.410729   -1.561123
H      3.370511    0.557306    0.699406
H      2.504116   -0.080050   -0.691877
H      2.565298   -1.001933    0.826043
H      1.273435    0.850352    1.975784
H      1.162548    1.716742    0.441313
H      0.053370   -0.939264    0.967392
H     -1.736391    0.251450    1.865131
H     -1.151278    1.722167    1.044448
H     -2.446882    0.995881   -0.948211
H     -2.540615   -0.661748   -0.320829
H     -0.036973    0.737642   -1.410913
H     -0.647327   -2.248061   -0.994168
H      0.832001   -1.587345   -1.730824
H     -0.724665   -1.400194   -2.535433
