21
2436_+.log
C      2.093900    0.000153    1.782998
C      0.923655    0.806883    1.274476
N     -0.003270    0.000976    0.422870
C     -1.248635    0.726572    0.011770
C     -1.841058   -0.135599   -1.093102
C     -0.647566   -0.914426   -1.689187
C      0.568536   -0.491305   -0.873301
H      2.689031    0.627311    2.447879
H      2.748914   -0.336206    0.978616
H      1.768202   -0.867217    2.363128
H      0.322718    1.196135    2.098634
H      1.243292    1.651667    0.661350
H     -0.285264   -0.818465    0.965306
H     -0.924011    1.703269   -0.350943
H     -1.888060    0.869451    0.882058
H     -2.344920    0.486314   -1.831499
H     -2.588078   -0.820427   -0.690294
H     -0.489106   -0.690131   -2.743031
H     -0.809871   -1.989880   -1.613988
H      1.286810   -1.285612   -0.680822
H      1.091109    0.359192   -1.314814
