19
2437_+.log
C      2.282744   -0.000296    1.438045
C      1.113285    0.836316    0.980335
N      0.000829   -0.000512    0.431560
C     -1.264161    0.764085    0.129815
C     -1.861192   -0.018670   -0.992110
C     -0.986496   -0.867630   -1.508507
C      0.332531   -0.788169   -0.812795
H      3.036892    0.657150    1.872031
H      2.753862   -0.541024    0.616088
H      1.991764   -0.715159    2.212117
H      0.687104    1.410156    1.805557
H      1.390521    1.535078    0.189394
H     -0.242956   -0.688839    1.145128
H     -1.871873    0.820096    1.034228
H     -0.991372    1.781878   -0.164729
H     -2.873915    0.146431   -1.333221
H     -1.151270   -1.525896   -2.350371
H      1.078936   -0.231295   -1.387160
H      0.762920   -1.749284   -0.530050
