21
2438_+.log
C      1.931922    0.000005    2.099558
C      0.748068    0.774879    1.573804
N      0.000082    0.000337    0.551191
C     -1.185100    0.640908   -0.138899
C     -0.722067    0.062195   -1.487826
C     -1.486189   -1.155732   -1.960412
C      0.626912   -0.236921   -0.808560
H      2.454244    0.604700    2.841652
H      2.646471   -0.239804    1.309603
H      1.624247   -0.926196    2.591063
H      0.035581    1.015890    2.366246
H      1.049207    1.708303    1.094101
H     -0.276786   -0.891907    0.959616
H     -2.139608    0.310625    0.268421
H     -1.092269    1.722742   -0.053294
H     -0.654436    0.805810   -2.280568
H     -1.567291   -1.920240   -1.181096
H     -0.992795   -1.609860   -2.821498
H     -2.498182   -0.881769   -2.263574
H      1.394377    0.518626   -0.972232
H      1.049221   -1.234805   -0.914060
