21
2447_+.log
C      1.377070    0.000286    2.991584
C      1.304149    0.416734    1.543690
N      0.000219   -0.000502    0.924438
C     -0.146420    0.350940   -0.501520
C      0.410344   -0.586735   -1.517904
C     -1.075931   -0.445861   -1.356508
C     -1.916669    0.240576   -2.394944
H      2.332772    0.322846    3.406189
H      1.320788   -1.084691    3.108207
H      0.589254    0.462780    3.590928
H      1.366410    1.498831    1.421608
H      2.085850   -0.040511    0.936581
H     -0.102918   -1.012423    1.029327
H     -0.768472    0.411870    1.459337
H     -0.064482    1.421231   -0.646766
H      0.876847   -1.504408   -1.175246
H      0.886587   -0.145318   -2.384401
H     -1.557351   -1.286563   -0.861144
H     -1.379000    1.074987   -2.850417
H     -2.843452    0.625113   -1.965097
H     -2.178269   -0.459010   -3.190396
