21
2448_+.log
C      2.131103   -0.002576    0.789595
C      0.768836   -0.654504    0.880580
N      0.000579    0.002711    2.007852
C     -0.023012   -0.577786   -0.397559
C     -1.520375   -0.607964   -0.476253
C     -0.772905    0.637020   -0.857978
C     -0.692227    1.085623   -2.289545
H      2.696714   -0.092178    1.720537
H      2.048789    1.052691    0.517250
H      2.709063   -0.498070    0.009040
H      0.865022   -1.698668    1.193312
H     -0.136599    0.996819    1.811538
H      0.507321   -0.076771    2.890494
H     -0.920021   -0.425893    2.121713
H      0.487564   -1.124920   -1.184247
H     -1.963149   -1.204359   -1.264340
H     -2.127934   -0.590359    0.424292
H     -0.864868    1.460009   -0.148831
H     -0.627244    0.226492   -2.961124
H      0.184168    1.713892   -2.461783
H     -1.578664    1.658989   -2.566718
