21
2464_+.log
C      2.345743   -0.000954   -0.230345
C      1.380660    0.598044    0.761219
N     -0.001005   -0.001313    0.696057
C     -0.834963    0.475168    1.833781
C     -0.675314    0.246419   -0.595352
C     -0.538802   -0.733044   -1.709399
C     -1.836936   -0.606774   -0.974203
H      3.327559    0.443250   -0.059776
H      2.064165    0.202248   -1.262434
H      2.452897   -1.080181   -0.094780
H      1.723044    0.446175    1.786133
H      1.247077    1.670263    0.607100
H      0.107479   -1.013520    0.791296
H     -0.939882    1.555780    1.752362
H     -0.342490    0.219355    2.770274
H     -1.813691    0.004618    1.777232
H     -0.700902    1.307735   -0.811736
H     -0.455254   -0.334156   -2.711955
H      0.042675   -1.631876   -1.539920
H     -2.674957   -0.119211   -1.454358
H     -2.115172   -1.423055   -0.316563
