21
2470_+.log
C      2.212273   -0.002008    1.144431
C      0.744462   -0.292282    0.916711
N      0.000395    0.003333    2.231380
C      0.121761    0.527401   -0.156123
C     -0.707601    0.091161   -1.114166
C     -1.185113   -1.315855   -1.268300
C     -1.208109    1.036431   -2.155839
H      2.629419   -0.585161    1.969449
H      2.384013    1.060820    1.335714
H      2.764261   -0.264370    0.241908
H      0.584233   -1.358741    0.757601
H      0.087056    0.995287    2.462172
H      0.371272   -0.537999    3.015248
H     -0.994665   -0.200499    2.127811
H      0.425502    1.572877   -0.170901
H     -0.837411   -2.005570   -0.499527
H     -0.865722   -1.708686   -2.237937
H     -2.278658   -1.339639   -1.277648
H     -2.301862    1.056435   -2.159857
H     -0.902570    0.696501   -3.149923
H     -0.839448    2.051041   -2.008846
