17
2472_+.log
C      2.222352   -0.000097    1.344369
C      0.775063   -0.398506    1.150140
N      0.000047    0.001303    2.414551
C      0.112027    0.239662   -0.018485
C     -0.591333   -0.460708   -0.916149
C     -1.209148    0.096383   -2.054213
C     -1.748780    0.534088   -3.035073
H      2.795131   -0.327424    0.476551
H      2.663997   -0.466579    2.228547
H      2.331859    1.085115    1.419930
H      0.669683   -1.484774    1.101987
H      0.032422    1.015219    2.542794
H      0.392669   -0.433305    3.252676
H     -0.982283   -0.267715    2.333012
H      0.254579    1.309635   -0.151499
H     -0.697315   -1.538546   -0.794428
H     -2.225395    0.925367   -3.905563
