23
2475_+.log
C      1.994417   -0.022551    0.506489
C      0.547955   -0.457871    0.589589
N      0.009086    0.023606    1.926360
C     -0.400752    0.006208   -0.534147
C     -1.814274   -0.512926   -0.252645
C     -0.427319    1.528371   -0.671014
C      0.093670   -0.617925   -1.840237
H      2.578788   -0.427062    1.336968
H      2.098896    1.064619    0.505613
H      2.443550   -0.402352   -0.409532
H      0.490250   -1.548350    0.655130
H      0.012682    1.045302    1.958692
H      0.580044   -0.318135    2.700267
H     -0.953048   -0.290697    2.064572
H     -1.823787   -1.591529   -0.067812
H     -2.454749   -0.330383   -1.116574
H     -2.306741   -0.004956    0.585317
H      0.551616    1.941024   -0.920335
H     -0.801309    2.038826    0.224686
H     -1.108557    1.808067   -1.476460
H      0.167238   -1.706197   -1.764886
H      1.065440   -0.226226   -2.143482
H     -0.611492   -0.390868   -2.641236
