21
2480_+.log
C      1.781158    0.010420    0.810594
C      0.326836   -0.314646    1.049268
N     -0.001192   -0.005975    2.501360
C     -0.648562    0.468308    0.178229
C     -0.523787    0.131418   -1.285305
C     -0.915336   -1.254503   -1.692587
C     -0.117722    1.051967   -2.152280
H      2.446902   -0.577190    1.447179
H      1.983022    1.074558    0.965159
H      2.025921   -0.215643   -0.227277
H      0.149040   -1.388360    0.953050
H      0.133225    0.990471    2.689459
H      0.602652   -0.526686    3.140300
H     -0.973061   -0.234465    2.719855
H     -0.476556    1.540737    0.321745
H     -1.675242    0.249348    0.504641
H     -0.857826   -1.375149   -2.773490
H     -1.940349   -1.480730   -1.380902
H     -0.269790   -2.018377   -1.245438
H     -0.045555    0.833385   -3.211176
H      0.141228    2.058439   -1.842112
