21
2484_+.log
C      2.432745   -0.010717    1.280792
C      1.112072    0.713920    1.376328
N     -0.001629    0.005720    0.654730
C     -1.332311    0.475528    1.119359
C      0.124301    0.107573   -0.847249
C     -0.750113   -0.871817   -1.549536
C     -1.723534   -0.517495   -2.375721
H      3.164048    0.525381    1.887436
H      2.828595   -0.053846    0.265849
H      2.366588   -1.026117    1.680214
H      1.157647    1.719833    0.954792
H      0.793352    0.799218    2.416158
H      0.073524   -0.986300    0.890049
H     -1.389074    1.552033    0.963452
H     -1.440129    0.248416    2.178457
H     -2.107083   -0.026072    0.543299
H      1.175305   -0.069160   -1.079974
H     -0.123226    1.137802   -1.108063
H     -0.518228   -1.925105   -1.402968
H     -1.960563    0.524120   -2.569454
H     -2.306667   -1.259090   -2.907974
