19
2573_+.log
C      1.357764    1.467275    0.000000
N      1.305437    0.000061   -0.000000
C      0.326965   -0.860131    0.738674
C     -0.917691   -0.181060    1.239392
C     -1.634613    0.393908   -0.000000
C     -0.917691   -0.181060   -1.239392
C      0.326965   -0.860131   -0.738674
H      1.890380    1.794959   -0.892102
H      1.890380    1.794959    0.892102
H      0.356784    1.883553    0.000000
H      2.234551   -0.407402   -0.000000
H      0.807477   -1.632709    1.326640
H     -1.516146   -0.955921    1.723960
H     -0.707301    0.566732    2.007125
H     -2.689077    0.120214   -0.000000
H     -1.613132    1.484158   -0.000000
H     -0.707301    0.566732   -2.007125
H     -1.516146   -0.955922   -1.723960
H      0.807477   -1.632709   -1.326640
