17
2574_+.log
C      1.464995   -0.000256    1.339811
N      0.000392    0.000146    1.285880
C     -0.824419   -0.739984    0.287242
C     -0.114277   -1.180776   -0.970549
C      0.269194    0.111360   -1.629656
C     -0.148256    1.173998   -0.942250
C     -0.861909    0.741752    0.277701
H      1.783385    0.787774    2.020885
H      1.869061    0.193118    0.349826
H      1.803790   -0.970211    1.702536
H     -0.422994   -0.015155    2.207691
H     -1.596754   -1.351588    0.735290
H      0.740756   -1.837222   -0.777247
H     -0.804874   -1.762378   -1.589315
H      0.833210    0.147746   -2.553403
H     -0.010885    2.212880   -1.207819
H     -1.640522    1.332287    0.743848
