17
2580_+.log
C      1.271070    0.001439    1.959603
N      0.000404   -0.000687    1.223086
C     -0.944649    1.135843    1.290838
C     -0.221054    0.862487    0.036581
C     -0.882319    0.213852   -1.151843
C     -0.009776   -0.772554   -1.765632
C      0.724093   -1.592882   -2.240193
H      1.970835   -0.659248    1.449917
H      1.092413   -0.342502    2.977591
H      1.665563    1.015923    1.977084
H     -0.430949   -0.918126    1.148425
H     -1.986519    0.851715    1.375654
H     -0.617258    1.939839    1.937788
H      0.651942    1.469249   -0.178283
H     -1.135747    1.004437   -1.865910
H     -1.832841   -0.245686   -0.856685
H      1.363108   -2.318963   -2.690597
