19
2584_+.log
C      1.230873    0.000197    1.823761
N      0.000097   -0.000236    1.003328
C     -0.258824   -1.274721    0.201497
C     -0.447247   -0.651108   -1.171999
C     -1.325894    0.578209   -0.838723
C     -0.055926    1.030881   -0.107807
C      0.736972    0.340315   -1.223013
H      1.313628    0.955744    2.340095
H      2.093071   -0.148338    1.178311
H      1.172589   -0.808970    2.550637
H     -0.790518    0.162494    1.625698
H     -1.137678   -1.780480    0.599904
H      0.610982   -1.924869    0.285668
H     -0.675997   -1.335809   -1.983641
H     -1.524551    1.198369   -1.709972
H     -2.241812    0.438187   -0.259126
H      0.129560    2.033775    0.270784
H      1.747502   -0.018776   -1.024886
H      0.729393    0.945441   -2.127238
