17
2591_+.log
C      1.163569   -0.003382    1.863073
N     -0.001609    0.000584    0.963347
C     -0.998960    1.138958    1.009022
C     -1.107764    1.103947   -0.517064
C      0.201038    0.287072   -0.533106
C      0.329321   -0.887416   -1.348042
C      0.414394   -1.871663   -2.027578
H      1.822973   -0.824256    1.582087
H      0.821712   -0.134939    2.889341
H      1.686495    0.946556    1.765808
H     -0.494419   -0.890290    1.041300
H     -0.492944    2.021923    1.397404
H     -1.875587    0.911797    1.611132
H     -1.956148    0.520761   -0.872503
H     -1.075401    2.058575   -1.034491
H      1.080462    0.931720   -0.607797
H      0.494192   -2.742732   -2.640313
