19
2604_+.log
C      0.814456   -0.000068    2.360080
N      0.000201    0.000016    1.124172
C     -0.127796    1.340619    0.455101
C     -0.684584    1.009963   -0.920512
C     -0.208877   -0.402260   -1.191084
C     -0.384211   -1.104930   -2.297116
C      0.500083   -0.903275    0.035573
H      0.843687   -1.008184    2.770738
H      0.368611    0.682240    3.082266
H      1.822089    0.328857    2.111461
H     -0.943260   -0.310431    1.364206
H      0.881702    1.751829    0.405456
H     -0.748369    1.992215    1.068681
H     -0.330172    1.721609   -1.667039
H     -1.776987    1.056957   -0.923613
H     -0.029878   -2.125189   -2.388088
H     -0.883980   -0.680762   -3.159898
H      0.299907   -1.942610    0.294765
H      1.582287   -0.751173   -0.016780
