21
2627_+.log
C      1.438231    0.000389    2.044878
N     -0.000029   -0.001177    1.665810
C     -0.286343   -0.447133    0.261347
C     -1.740999   -0.364579   -0.198926
C     -1.195413    0.072991   -1.573075
C      0.134451    0.477715   -0.892919
C      1.436150    0.242908   -1.620517
H      1.536589    0.326112    3.079020
H      1.969630    0.681902    1.385451
H      1.828869   -1.008725    1.930577
H     -0.383451    0.939035    1.782604
H     -0.522100   -0.598759    2.310444
H      0.136469   -1.449636    0.167009
H     -2.276137    0.454757    0.290218
H     -2.343438   -1.269468   -0.135165
H     -1.053441   -0.778557   -2.240547
H     -1.741708    0.850617   -2.102509
H      0.054715    1.521946   -0.562666
H      1.529251   -0.800864   -1.930319
H      2.309952    0.497300   -1.015500
H      1.477938    0.857983   -2.521597
