21
2634_+.log
C      1.330112    0.003233    1.935667
N     -0.000498   -0.002736    1.273440
C     -0.034545   -0.353828   -0.207929
C      0.562523   -1.718599   -0.419247
C     -1.461237   -0.054301   -0.715489
C     -0.991648    1.347435   -1.154969
C      0.463820    0.855192   -1.026233
H      1.217555    0.392037    2.946386
H      2.004246    0.638779    1.366407
H      1.715146   -1.012053    1.972628
H     -0.616632   -0.655460    1.762597
H     -0.430104    0.918818    1.377087
H      0.429741   -1.998104   -1.464494
H      0.065434   -2.483169    0.186387
H      1.634234   -1.744442   -0.212512
H     -2.282710   -0.132000    0.002278
H     -1.697318   -0.696443   -1.563721
H     -1.246241    2.132640   -0.438888
H     -1.310902    1.685744   -2.138114
H      0.867832    0.510819   -1.978287
H      1.202537    1.518411   -0.571923
