19
2636_+.log
C      1.187873   -0.001748    2.293411
N      0.001141    0.002112    1.400733
C      0.153133   -0.732907    0.084032
C     -1.225797   -0.786772   -0.576777
C     -1.253267    0.487036   -1.376289
C     -0.030118    0.983081   -1.532463
C      1.002414    0.119482   -0.859869
H      0.958145    0.570058    3.190898
H      2.030819    0.448605    1.776364
H      1.420473   -1.031780    2.556955
H     -0.272548    0.962404    1.168987
H     -0.790787   -0.402940    1.901908
H      0.577222   -1.706309    0.330054
H     -2.046810   -0.891569    0.141137
H     -1.289528   -1.662428   -1.232355
H     -2.158239    0.888281   -1.813451
H      0.226601    1.856798   -2.117079
H      1.506579   -0.527893   -1.585915
H      1.797437    0.676834   -0.357191
