21
2637_+.log
C      1.348464   -0.000679    2.482112
N      0.000199    0.000330    1.854465
C      0.001590   -0.322480    0.390036
C     -1.332977   -0.203631   -0.346247
C     -0.547472    0.416753   -1.532665
C     -0.201032   -0.561506   -2.634302
C      0.616412    0.714778   -0.549529
H      1.257481    0.266397    3.533465
H      1.970926    0.724879    1.962845
H      1.776183   -0.996330    2.383643
H     -0.605941   -0.664887    2.339464
H     -0.432879    0.917957    1.977666
H      0.457766   -1.308960    0.301984
H     -1.890446   -1.123247   -0.523231
H     -1.995545    0.530841    0.121525
H     -1.011436    1.308006   -1.954365
H      0.267328   -1.471360   -2.247083
H      0.491679   -0.110005   -3.347294
H     -1.097075   -0.857905   -3.183153
H      0.545920    1.728686   -0.143698
H      1.635177    0.540713   -0.895098
