21
2654_+.log
C      0.894886    0.000921    3.045560
N     -0.000283   -0.000416    1.858693
C      0.622618    0.514708    0.591577
C     -0.345121    0.393275   -0.554368
C      0.201589    0.648655   -1.975004
C     -0.684987   -0.508971   -2.471515
C     -0.776331   -1.018106   -1.019166
H      0.352656   -0.388496    3.905533
H      1.217357    1.022297    3.237592
H      1.757390   -0.626702    2.831241
H     -0.835544    0.553563    2.057747
H     -0.335120   -0.949686    1.677085
H      1.518655   -0.087253    0.425467
H      0.925307    1.546105    0.784570
H     -1.222049    1.025982   -0.375665
H      1.263342    0.398302   -2.043151
H      0.047247    1.639477   -2.399848
H     -1.650812   -0.151755   -2.830498
H     -0.263921   -1.184845   -3.213166
H     -1.736883   -1.406364   -0.675879
H      0.002319   -1.761711   -0.816376
