21
2655_+.log
C      1.358336   -0.000604    1.833262
N      0.000537   -0.001583    1.225327
C     -0.631679    1.337746    1.338875
C      0.047496   -0.566378   -0.175506
C     -1.226764   -0.680168   -1.012439
C     -0.318742   -0.435198   -2.238763
C      0.721107    0.219232   -1.300637
H      1.291279    0.344098    2.863749
H      1.991348    0.672036    1.257359
H      1.764142   -1.010197    1.802298
H     -0.576250   -0.648855    1.766111
H     -0.022086    2.063639    0.806229
H     -0.682650    1.607250    2.392567
H     -1.633519    1.306881    0.919248
H      0.514608   -1.546864   -0.059775
H     -1.904628    0.162854   -0.869853
H     -1.790293   -1.610026   -0.948905
H     -0.722755    0.183832   -3.036088
H      0.050295   -1.368705   -2.663081
H      1.779536    0.040351   -1.483049
H      0.542337    1.293614   -1.227977
