21
2667_+.log
C      1.101520   -0.002160    2.439063
N      0.000145    0.001052    1.443493
C      0.380789   -0.311581    0.001723
C      0.814668   -1.754391   -0.121958
C     -0.793793    0.044824   -0.855674
C     -1.109169    1.494070   -1.125520
C     -0.555244    0.633049   -2.211611
H      0.706780    0.305061    3.406200
H      1.868828    0.696943    2.111951
H      1.516316   -1.003832    2.513015
H     -0.454193    0.917215    1.427753
H     -0.722769   -0.662810    1.729151
H      1.213306    0.365529   -0.212200
H      0.009589   -2.437867    0.163265
H      1.703752   -1.985847    0.465567
H      1.053450   -1.953205   -1.167231
H     -1.637730   -0.635534   -0.772268
H     -2.150082    1.785201   -1.175681
H     -0.451075    2.253899   -0.715111
H      0.470147    0.804050   -2.516932
H     -1.214552    0.323495   -3.011152
