23
2671_+.log
C      1.397822   -0.010466    1.415747
N     -0.001646    0.001827    0.910379
C     -0.697637    1.213846    1.420391
C     -0.137738   -0.237477   -0.619038
C     -1.614448   -0.133968   -0.972957
C      0.682793    0.789065   -1.377648
C      0.352895   -1.652758   -0.893496
H      1.921168   -0.888326    1.049668
H      1.369483   -0.031733    2.503950
H      1.901560    0.894667    1.085246
H     -0.471640   -0.803760    1.326937
H     -0.281648    2.094094    0.935955
H     -0.529642    1.279001    2.494125
H     -1.762763    1.143154    1.223552
H     -1.744269   -0.474896   -2.000357
H     -1.991558    0.887651   -0.924643
H     -2.236209   -0.776500   -0.342282
H      0.517068    0.629043   -2.444041
H      1.754269    0.684738   -1.202268
H      0.380444    1.815115   -1.161561
H      0.159619   -1.887618   -1.940406
H     -0.184048   -2.394974   -0.294824
H      1.424353   -1.775666   -0.735745
