21
2672_+.log
C      0.837933   -0.013448    2.380809
N     -0.005557    0.006642    1.158136
C     -0.964744    1.141537    1.175306
C      0.836929   -0.003920   -0.097089
C      0.021842   -0.239529   -1.330241
C     -0.696547   -1.550435   -1.422280
C      0.019780    0.669732   -2.299069
H      0.194894   -0.035233    3.259061
H      1.450458    0.886825    2.393094
H      1.475172   -0.895858    2.361962
H     -0.552686   -0.856127    1.145190
H     -0.396205    2.069058    1.227113
H     -1.607241    1.049513    2.049287
H     -1.555190    1.122039    0.261772
H      1.570177   -0.802476    0.047878
H      1.360164    0.952350   -0.124610
H     -0.008163   -2.390963   -1.285737
H     -1.178202   -1.664473   -2.392391
H     -1.488490   -1.654597   -0.669189
H     -0.511888    0.500879   -3.228187
H      0.565495    1.602731   -2.210712
