21
2673_+.log
C      1.149312   -0.007831    2.435707
N     -0.002147    0.002546    1.493872
C     -0.999320    1.034728    1.883996
C      0.464549    0.142888    0.069280
C     -0.620154   -0.141446   -0.954763
C     -0.053451   -0.041352   -2.339350
C      0.040597   -1.061893   -3.176959
H      1.824699   -0.817093    2.164651
H      0.781015   -0.150938    3.450177
H      1.665754    0.947773    2.360216
H     -0.462281   -0.907226    1.562995
H     -0.533217    2.014527    1.790515
H     -1.298338    0.863563    2.916729
H     -1.867573    0.969672    1.233827
H      0.863191    1.155299   -0.024302
H      1.289605   -0.560495   -0.053471
H     -1.027342   -1.146534   -0.799772
H     -1.444202    0.571735   -0.851648
H      0.284900    0.944734   -2.649255
H     -0.299960   -2.057439   -2.909404
H      0.450516   -0.936314   -4.171559
