16
3003_+.log
N      0.000243    0.000001    3.326670
C     -0.250444   -0.323738    2.254159
C     -0.515505   -0.690129    0.875546
N      0.464352   -0.000184   -0.028966
C      0.248713   -0.287057   -1.464300
C     -0.744170    0.540142   -2.205412
C      0.722506    0.713851   -2.459514
H     -1.519057   -0.389038    0.570353
H     -0.410357   -1.766661    0.728380
H      1.416363   -0.267253    0.241054
H      0.404724    1.009934    0.129151
H      0.344775   -1.346909   -1.664409
H     -1.255636    1.336633   -1.675202
H     -1.353919    0.033829   -2.941937
H      1.190614    1.623876   -2.100246
H      1.152322    0.325695   -3.373444
