16
3021_+.log
N      0.000018    0.000045    0.854304
C      1.063057   -0.337558   -0.155446
N      2.237305    0.000223   -0.005298
C      0.079900   -1.070472   -1.039525
C     -1.035903   -0.671885   -0.063797
C     -0.690573    1.335025    0.659030
C     -1.707314    0.689780   -0.298231
H      0.197294   -0.291404    1.811784
H      2.865850   -0.285117   -0.754579
H     -0.009414   -0.691011   -2.057848
H      0.279045   -2.143770   -1.078679
H     -1.623704   -1.469161    0.383158
H     -0.002955    2.082240    0.268408
H     -1.105418    1.670211    1.607339
H     -2.735921    0.745211    0.050808
H     -1.664997    1.037749   -1.328699
