14
3026_+.log
N     -0.000191   -0.000083    2.057118
C      0.448025   -0.064198    0.817770
N      1.492338   -0.000285    1.665379
C      0.061903   -0.141458   -0.535203
C      1.083691   -0.354898   -1.400590
C     -1.367579   -0.056894   -0.857485
C     -1.830828    0.466003   -1.986147
H     -0.455550    0.863176    2.367434
H      1.958760    0.914029    1.669326
H      2.112895   -0.402223   -1.061634
H      0.897395   -0.512009   -2.457233
H     -2.052531   -0.443268   -0.108076
H     -1.178412    0.897425   -2.738229
H     -2.894033    0.490720   -2.189400
