12
3027_+.log
N     -0.000297   -0.000328    1.895973
C      0.482345    0.043721    0.678866
N      1.508606    0.000501    1.551702
C      0.135279    0.067796   -0.692142
C      1.159124    0.251455   -1.563200
C     -1.236316   -0.065034   -1.026629
C     -2.401477   -0.184149   -1.285921
H     -0.483867   -0.841452    2.223558
H      1.975420   -0.914466    1.576610
H      0.977529    0.304516   -2.630512
H      2.177833    0.370601   -1.210647
H     -3.436685   -0.283756   -1.530957
