15
4545_+.log
C     -0.410394   -1.364161    0.000000
C     -0.538968   -0.216693    1.012832
N     -1.509264    0.423646   -0.000000
C     -0.538968   -0.216693   -1.012832
C      0.691618    0.660569   -0.733354
O      1.693174    0.000261   -0.000000
C      0.691618    0.660569    0.733354
H     -1.278296   -2.023411    0.000000
H      0.516780   -1.926259    0.000000
H     -0.916855   -0.326567    2.025620
H     -1.585336    1.442921   -0.000000
H     -2.437803   -0.001293   -0.000000
H     -0.916855   -0.326567   -2.025620
H      0.988919    1.475793   -1.381272
H      0.988919    1.475793    1.381272
