17
4554_+.log
C      0.247344   -0.777970   -1.867282
N      1.337568    0.000126   -1.226265
C      0.012529   -0.205234   -0.539391
C     -0.815344    1.023951   -0.231402
C     -0.989998    0.920896    1.298774
O     -0.000386    0.000194    1.730974
C      0.051111   -0.992485    0.752798
H     -0.173931   -0.301551   -2.744179
H      0.464624   -1.834966   -1.966916
H      1.549956    0.918398   -1.601462
H      2.146900   -0.502409   -0.876693
H     -0.301152    1.942375   -0.522143
H     -1.767047    0.993083   -0.763311
H     -1.989364    0.546239    1.546727
H     -0.825100    1.862149    1.818801
H      0.946409   -1.602728    0.892134
H     -0.829545   -1.652859    0.779827
