17
4560_+.log
C      0.154944   -0.847524   -1.419627
C     -0.866533   -1.260566   -0.373857
C     -1.097843   -0.213405    0.683035
O      0.000213   -0.000349    1.577348
C     -0.357898    1.047840    0.698447
C      0.693863    1.317795   -0.338985
N      1.224722    0.000173   -0.795336
H      0.639013   -1.707145   -1.882695
H     -0.288192   -0.234669   -2.205837
H     -0.559201   -2.184399    0.124873
H     -1.806109   -1.482974   -0.883736
H     -2.062134   -0.242686    1.181589
H     -0.791075    1.933190    1.156346
H      0.300942    1.851761   -1.205632
H      1.524684    1.885191    0.085596
H      1.999796    0.134547   -1.444138
H      1.583125   -0.478327    0.039394
