17
4564_+.log
C      1.376617    0.057647    1.845799
O      0.000439   -0.000829    2.169447
C      0.347274    0.526436    0.913822
C     -0.107663   -0.324143   -0.225834
C     -1.481779   -0.085850   -0.874200
C     -0.801700   -0.172174   -2.242702
N      0.550455   -0.000211   -1.572690
H      1.857537   -0.904330    1.685142
H      1.953387    0.794166    2.396967
H      0.179758    1.599331    0.801264
H      0.077649   -1.377749   -0.013544
H     -1.874202    0.908549   -0.658256
H     -2.246855   -0.827316   -0.661570
H     -0.839381   -1.158807   -2.700295
H     -1.000531    0.596075   -2.986031
H      1.306442   -0.611452   -1.878225
H      0.885164    0.962894   -1.611438
