17
4567_+.log
C      0.951163   -0.943428   -1.294503
N      1.866677   -0.000165   -0.616565
C      0.518728    0.442948   -1.066634
C     -0.375618    0.787805    0.097124
C     -1.805052    0.235203    0.108426
C     -1.373183   -0.453847    1.407586
O     -0.000179    0.000537    1.225824
H      0.589815   -1.722571   -0.635753
H      1.272805   -1.245916   -2.282142
H      2.700742    0.324185   -1.091989
H      1.933931   -0.123004    0.395274
H      0.545961    1.128062   -1.906811
H     -0.293961    1.860061    0.306914
H     -2.035720   -0.443755   -0.711708
H     -2.592902    0.979067    0.194582
H     -1.794295   -0.032363    2.320839
H     -1.433548   -1.542254    1.439311
