17
4569_+.log
C      0.559693   -0.553056    0.140615
C      0.318993    0.516615    1.169674
C     -1.006844    0.732204    1.751354
O     -0.005066   -0.000837    2.432839
N      0.549158    0.000084   -1.231398
C      0.272086   -0.853878   -2.406373
C     -0.706571    0.164178   -1.993891
H     -0.214000   -1.320314    0.197978
H      1.532372   -1.028909    0.287890
H      1.038977    1.336050    1.178766
H     -1.244502    1.702244    2.177366
H     -1.854597    0.144134    1.406221
H      1.241448    0.727067   -1.386770
H      0.908540   -0.669570   -3.262197
H      0.094604   -1.892095   -2.156698
H     -1.589105   -0.141301   -1.447368
H     -0.784665    1.089074   -2.550581
