17
4570_+.log
C     -0.436317   -0.766067   -1.781575
C     -0.092367   -1.168864   -0.409463
C     -0.870145   -0.728436    0.809468
O      0.000245   -0.000322    1.631949
C      0.460921    1.223552    1.091858
C      0.295489    1.311234   -0.424114
N      0.591179    0.000156   -1.040951
H     -0.050949   -1.337774   -2.616264
H     -1.346415   -0.208736   -1.966471
H      0.565152   -2.021079   -0.279777
H     -1.189939   -1.602640    1.375906
H     -1.769074   -0.162680    0.534348
H      1.512688    1.312795    1.372546
H     -0.079623    2.065822    1.537977
H     -0.722431    1.576266   -0.706268
H      0.964506    2.056416   -0.853070
H      1.553160   -0.148182   -1.326247
