19
4572_+.log
C     -0.912184   -1.411536   -0.298596
C     -0.149839   -0.817850   -1.464960
N      1.038743    0.000340   -1.017899
C      0.688652    1.358727   -0.482428
C      0.436361    1.271734    1.026886
O      0.000141    0.000563    1.411845
C     -1.218090   -0.438575    0.825894
H     -1.840126   -1.832495   -0.695642
H     -0.346595   -2.248343    0.122629
H     -0.762738   -0.145489   -2.067375
H      0.237172   -1.602701   -2.116417
H      1.526201   -0.519262   -0.281551
H      1.680792    0.101242   -1.803245
H      1.512526    2.038162   -0.703462
H     -0.186024    1.693122   -1.038613
H     -0.272488    2.058390    1.309890
H      1.363804    1.444856    1.575813
H     -1.784934   -0.948787    1.605763
H     -1.819306    0.413975    0.487432
