15
4584_+.log
C      1.542054    0.421348   -0.374561
N      0.692260   -0.000017   -1.560836
C     -0.589360    0.383255   -0.763075
C     -1.299960   -0.777375   -0.189751
C     -0.904502   -0.902141    1.082134
O     -0.000060   -0.000029    1.509870
C      0.301318    0.845051    0.411245
H      2.083159   -0.422748    0.047960
H      2.231817    1.215102   -0.652466
H      0.853690    0.542216   -2.409249
H      0.737382   -0.992550   -1.791081
H     -1.171338    1.100976   -1.339809
H     -2.066340   -1.356869   -0.680224
H     -1.227529   -1.611812    1.832103
H      0.262709    1.881192    0.738777
