14
4585_+.log
C      1.559754    0.340179   -0.403751
N      0.653826    0.000153   -1.583121
C     -0.563049    0.434275   -0.757099
C     -1.277879   -0.713196   -0.126678
N     -0.931773   -0.905639    1.083265
O     -0.000206    0.000421    1.487890
C      0.356432    0.842056    0.400280
H      2.033056   -0.553240   -0.000677
H      2.306079    1.078987   -0.686786
H      0.820326    0.568868   -2.413434
H      0.650647   -0.982268   -1.860970
H     -1.175119    1.152206   -1.300519
H     -2.053763   -1.320374   -0.574241
H      0.385286    1.873591    0.742802
