19
4621_+.log
C     -0.217720    1.668881   -1.678945
C     -0.777446    0.475291   -0.956877
C     -0.395439   -0.916807   -1.371692
C      0.056513   -0.386480   -0.056342
N      1.480933   -0.000186    0.114763
C     -0.453866   -0.917457    1.253373
O     -0.002419   -0.000181    2.229289
H     -0.140959    2.541363   -1.025692
H     -0.874046    1.938515   -2.507943
H      0.760420    1.474351   -2.134139
H     -1.793424    0.604870   -0.598575
H     -1.134939   -1.708147   -1.355841
H      0.337386   -1.010282   -2.166357
H      2.119406   -0.790628    0.008687
H      1.553814    0.359898    1.080440
H      1.753601    0.733902   -0.540901
H     -0.062595   -1.925692    1.446145
H     -1.545645   -0.976751    1.209368
H     -0.222558   -0.304359    3.114479
