19
4629_+.log
C     -2.433453   -0.273089    1.099038
C     -1.236637   -0.597575    0.261378
C     -1.040595    0.161650   -1.062266
C      0.264882    0.657048   -0.445681
C      1.557232    0.082070   -1.004196
N      2.493652   -0.000526    0.163734
O     -0.001069    0.001125    0.798130
H     -2.337485   -0.710907    2.094358
H     -3.329474   -0.690846    0.632822
H     -2.564095    0.805962    1.200346
H     -1.100331   -1.678894    0.173409
H     -1.772701    0.948599   -1.232229
H     -0.948939   -0.445982   -1.961600
H      0.354074    1.741544   -0.314307
H      1.413547   -0.939715   -1.357265
H      2.007824    0.683883   -1.792767
H      1.898033   -0.331971    0.946594
H      2.875992    0.911504    0.418233
H      3.270114   -0.643800    0.013649
