19
4646_+.log
C     -0.865378    0.976871   -1.460268
C     -0.598611   -0.013461   -0.354014
C     -1.666717   -1.054645   -0.148983
C      0.818247   -0.459675   -0.100307
N      1.929482   -0.001194   -0.967432
C      0.178123    0.497596    0.842158
O     -0.000782    0.000382    2.110090
H     -0.145031    1.802820   -1.494656
H     -1.840109    1.443468   -1.305812
H     -0.890289    0.491724   -2.440018
H     -1.431301   -1.714752    0.686197
H     -1.795304   -1.661671   -1.047744
H     -2.622362   -0.570630    0.064288
H      0.991278   -1.466021    0.260165
H      1.684201    0.876954   -1.430986
H      2.133528   -0.683739   -1.701592
H      2.787330    0.151919   -0.430634
H      0.493028    1.541536    0.777204
H     -0.739370    0.447332    2.536909
