19
4653_+.log
C     -1.678632   -0.947944    0.532254
C     -0.464504   -0.089959    0.742487
C      0.674490   -0.264956   -0.244758
C      0.301576    0.174252   -1.642460
N      1.476220   -0.003244   -2.572441
C     -0.551737    1.167006    1.491059
O     -0.000942   -0.002440    2.074157
H     -2.379764   -0.803248    1.353660
H     -1.405534   -2.006299    0.505477
H     -2.199912   -0.701328   -0.396903
H      0.970648   -1.321669   -0.248884
H      1.526813    0.315536    0.122911
H      0.029912    1.229975   -1.684558
H     -0.513091   -0.414257   -2.065464
H      2.277618    0.547403   -2.255628
H      1.255460    0.284711   -3.528089
H      1.772837   -0.981579   -2.599756
H      0.158906    1.970086    1.304583
H     -1.512815    1.479020    1.890216
