17
4669_+.log
C     -1.035380   -0.342191   -2.320824
C     -0.485962    0.295927   -1.072515
C     -1.044434   -0.179288    0.255016
C      0.072001    0.015785    1.263644
O     -0.000196   -0.000015    2.448303
C      1.378545    0.254853    0.496390
N      1.011042   -0.000025   -0.925362
H     -2.094174   -0.095481   -2.412518
H     -0.954643   -1.432258   -2.282235
H     -0.537410    0.022661   -3.222104
H     -0.541655    1.386324   -1.134156
H     -1.302294   -1.245045    0.226098
H     -1.938926    0.362522    0.562003
H      1.690829    1.294651    0.608555
H      2.183702   -0.401008    0.823893
H      1.561029    0.555257   -1.581065
H      1.174427   -0.980144   -1.165319
