19
4673_+.log
C     -1.057378   -1.253710   -1.677454
C     -0.432482    0.038538   -1.260362
C     -0.433102    0.588680    0.115365
C     -0.999014   -0.099306    1.322053
O     -0.002212   -0.005910    2.306499
N      0.810344   -0.000167   -0.440525
C      1.990842    0.819898   -0.733244
H     -0.549057   -1.656412   -2.554872
H     -2.098188   -1.070457   -1.951686
H     -1.045419   -2.007411   -0.889796
H     -0.345338    0.783614   -2.044970
H     -0.343290    1.665915    0.209217
H     -1.922743    0.421421    1.600235
H     -1.258917   -1.141862    1.101977
H     -0.351011   -0.285129    3.158215
H      1.027680   -0.910280   -0.043751
H      1.663621    1.776802   -1.136288
H      2.611319    0.305137   -1.465799
H      2.543813    0.979475    0.191345
