19
4697_+.log
C     -1.054164   -1.326521   -0.564965
C     -0.438743    0.023710   -0.777751
C     -1.257272    1.007726   -1.559642
N      1.028679    0.000400   -1.175100
C      0.594878    0.548799    0.138221
C      1.046138   -0.171511    1.380736
O     -0.000486    0.001834    2.290390
H     -1.940651   -1.202339    0.059030
H     -0.392189   -2.026552   -0.055755
H     -1.365005   -1.758923   -1.517376
H     -0.730824    1.950482   -1.723697
H     -2.163103    1.230383   -0.992413
H     -1.557029    0.591087   -2.522843
H      1.502043   -0.896572   -1.175762
H      1.352895    0.644992   -1.887038
H      0.686007    1.629413    0.176736
H      1.236808   -1.233356    1.166618
H      1.987530    0.269396    1.728833
H      0.309270   -0.159805    3.186213
