19
4700_+.log
C     -1.491880   -0.738199   -1.301451
C     -0.576767   -0.881985   -0.116619
C      0.891237   -0.546530   -0.160764
N      1.458165    0.000999   -1.416246
C     -0.066143    0.275989    0.678910
C     -0.403231    1.700393    0.340517
O      0.001054   -0.000720    2.031140
H     -2.526763   -0.683596   -0.960321
H     -1.413185   -1.601364   -1.966071
H     -1.322726    0.166433   -1.893057
H     -0.770875   -1.760698    0.490293
H      1.603387   -1.186152    0.344143
H      0.755095    0.538868   -1.927131
H      1.774772   -0.748534   -2.037214
H      2.253655    0.618235   -1.237818
H      0.355984    2.383960    0.732005
H     -1.357237    1.958354    0.803853
H     -0.509044    1.892246   -0.729457
H      0.536038    0.661813    2.481937
