17
4702_+.log
C     -2.044222    0.439639   -0.764722
C     -0.727714   -0.287573   -0.694557
C      0.250322   -0.182222   -1.875646
N      1.400789   -0.001112   -0.901180
C      0.393645    0.319854    0.188426
C      0.644549   -0.317555    1.536109
O     -0.002884   -0.004235    2.483651
H     -2.701512   -0.029753   -1.499029
H     -1.907701    1.487040   -1.044335
H     -2.551100    0.406416    0.201148
H     -0.880398   -1.337788   -0.426588
H      0.137420    0.736665   -2.449857
H      0.388306   -1.033077   -2.539369
H      2.089885    0.717041   -1.122256
H      1.899461   -0.874379   -0.719690
H      0.309137    1.403343    0.283598
H      1.417920   -1.118001    1.577515
