15
4704_+.log
C     -2.108459   -0.516116    0.024987
C     -0.860573   -0.133137   -0.219194
C     -0.226806    0.169287   -1.538672
N      1.255233    0.000205   -1.255457
C      1.482691    0.392203    0.172746
C      0.149102    0.065754    0.852024
O      0.000032   -0.000320    2.032907
H     -2.418715   -0.679976    1.051748
H     -2.841750   -0.670079   -0.758328
H     -0.511024   -0.488220   -2.358904
H     -0.371209    1.208377   -1.845525
H      1.512270   -0.979808   -1.384212
H      1.825391    0.543502   -1.903602
H      1.676263    1.465930    0.218843
H      2.323840   -0.151724    0.598129
