17
4707_+.log
C     -0.701645   -1.228862    1.270632
C     -0.425206   -0.463316    0.000000
C     -0.701645   -1.228862   -1.270632
N     -1.140625    0.927910   -0.000000
C      0.174839    1.673231   -0.000000
C      0.897099    0.324934    0.000000
O      2.029477   -0.000095    0.000000
H     -1.724543   -1.612097    1.283001
H     -0.526198   -0.628736    2.167027
H     -0.021122   -2.081099    1.311015
H     -1.724543   -1.612097   -1.283001
H     -0.021122   -2.081099   -1.311015
H     -0.526198   -0.628736   -2.167027
H     -1.713382    1.090411    0.826750
H     -1.713382    1.090411   -0.826750
H      0.305949    2.282805    0.893757
H      0.305949    2.282805   -0.893757
