19
4708_+.log
C     -1.367322   -0.739059   -1.567819
C     -0.408985   -0.109053   -0.587671
C      0.988889   -0.647578   -0.770581
N      1.987861   -0.000971    0.140693
C     -0.661775    1.319759   -0.171210
C     -0.914615    0.194636    0.785248
O     -0.001473    0.000567    1.840707
H     -2.384303   -0.387058   -1.392012
H     -1.371764   -1.828236   -1.475356
H     -1.102593   -0.481154   -2.596294
H      1.332733   -0.510052   -1.797129
H      1.010928   -1.715154   -0.541800
H      2.221625    0.941738   -0.168523
H      2.851505   -0.539614    0.195915
H      1.529179    0.060478    1.079763
H      0.167783    1.977398    0.067503
H     -1.502593    1.831880   -0.622013
H     -1.933094   -0.087423    1.029479
H     -0.288690    0.498276    2.613987
