19
4709_+.log
C     -1.731943   -1.245750   -0.412607
C     -0.394464   -0.629618   -0.090265
C      0.209755    0.454070   -0.991853
N      1.144004   -0.000234   -2.081062
C      0.832497    1.136708    0.223030
C     -0.254734    0.409719    1.054821
O      0.001904   -0.001028    2.344400
H     -2.075949   -1.851890    0.427454
H     -1.691347   -1.900143   -1.287910
H     -2.485087   -0.475914   -0.596688
H      0.367750   -1.403481    0.083624
H     -0.550420    1.062428   -1.484238
H      1.893913   -0.576623   -1.693762
H      1.577621    0.792897   -2.559733
H      0.653252   -0.558838   -2.783488
H      1.819455    0.721626    0.454388
H      0.882613    2.223961    0.244015
H     -1.157812    1.023493    1.106053
H      0.795240   -0.543957    2.380779
