19
4713_+.log
C     -2.071833   -0.068114    0.019627
C     -0.784426   -0.757981    0.438480
C      0.083837   -1.201094   -0.732128
N      0.715089    0.002378   -1.370188
C      1.489034    0.806124   -0.365937
C      0.567579    1.154329    0.784220
O     -0.000983    0.000544    1.341592
H     -2.616086    0.250387    0.908935
H     -2.707026   -0.762385   -0.534009
H     -1.924835    0.817986   -0.605313
H     -1.042807   -1.664695    0.990432
H      0.903911   -1.832585   -0.389213
H     -0.488478   -1.727974   -1.496210
H      1.324120   -0.287279   -2.136392
H     -0.015417    0.587614   -1.782003
H      2.314469    0.175299   -0.033242
H      1.882572    1.692206   -0.865420
H     -0.198388    1.871338    0.459146
H      1.150222    1.636319    1.570073
