17
4714_+.log
C     -2.252124    0.000057    0.588493
C     -0.972461   -0.217528    0.331260
C     -0.474550   -0.828641   -0.937961
N      0.665569    0.000046   -1.473290
C      1.717455    0.195464   -0.422996
C      1.068577    0.797285    0.802986
O     -0.000023    0.000312    1.267865
H     -2.560774    0.386166    1.551522
H     -3.015146   -0.240014   -0.140099
H     -0.061777   -1.825239   -0.760141
H     -1.248995   -0.882865   -1.700925
H      1.066239   -0.444119   -2.301076
H      0.304591    0.911231   -1.767863
H      2.134740   -0.789797   -0.210306
H      2.496211    0.842296   -0.828692
H      0.715453    1.816640    0.594341
H      1.802335    0.852154    1.606972
