19
4715_+.log
C     -1.437582   -1.345455   -0.328175
C     -0.360062   -0.297338   -0.224259
C      0.907603   -0.762199   -0.941409
N      2.056524   -0.003214   -0.358200
C     -0.827357    1.153587   -0.438856
C     -0.685012    1.283986    1.076569
O      0.000632    0.002131    1.151527
H     -1.113419   -2.281854    0.130305
H     -1.686593   -1.534980   -1.375951
H     -2.343882   -1.011485    0.178019
H      1.093376   -1.816815   -0.735072
H      0.863905   -0.607970   -2.018646
H      1.741821    0.163426    0.625627
H      2.208794    0.897312   -0.810919
H      2.932368   -0.523178   -0.377322
H     -1.823951    1.270251   -0.859055
H     -0.137697    1.783761   -1.005021
H     -0.067794    2.096163    1.462989
H     -1.622752    1.244790    1.632272
