19
4723_+.log
C     -1.663114   -0.004437   -1.379713
C     -0.505920   -0.000053   -0.408285
C      0.807618    0.007737   -1.172654
N      2.001191   -0.001728   -0.254116
C     -0.494811    1.014872    0.748293
O     -0.004570    0.001828    1.645717
C     -0.486577   -1.015043    0.748362
H     -1.642007   -0.887609   -2.023103
H     -1.649812    0.879551   -2.022190
H     -2.610012   -0.008776   -0.838511
H      0.902247   -0.872578   -1.811378
H      0.900569    0.902141   -1.791740
H      2.001714   -0.835187    0.337398
H      1.975637    0.792839    0.388649
H      2.876314    0.026881   -0.778999
H     -1.497421    1.350767    1.028965
H      0.159442    1.894115    0.694254
H      0.173472   -1.889936    0.695718
H     -1.487148   -1.357536    1.028460
