16
4753_+.log
C     -0.978553   -0.608089   -2.254678
C      0.108023   -0.425498   -1.223201
C     -0.197679   -1.036522    0.161075
N      0.313538   -0.000150    1.064704
O     -0.000045   -0.000254    2.388001
C      0.463897    1.137651    0.425837
N      0.331128    0.992447   -0.863766
H     -1.114616   -1.671427   -2.459757
H     -0.710109   -0.126363   -3.196716
H     -1.927422   -0.197126   -1.905362
H      1.058907   -0.819208   -1.595861
H      0.310723   -1.984955    0.326234
H     -1.270384   -1.158377    0.340312
H      0.695378   -0.503114    2.837464
H      0.666354    2.070930    0.936665
H      0.533727    1.719357   -1.532622
