17
4754_+.log
C     -1.145079   -1.738814    0.005276
C     -0.634011   -0.338496    0.155842
C     -1.243473    0.621045    1.075832
O      0.000689   -0.003050    1.383300
C      0.152766    0.196444   -1.003363
C      1.038748    1.358212   -0.858305
N      1.629052    0.001685   -0.848511
H     -1.631907   -2.057769    0.926100
H     -0.333113   -2.438764   -0.209507
H     -1.871868   -1.797476   -0.808162
H     -1.196680    1.687952    0.875380
H     -2.081347    0.290365    1.681196
H     -0.195265   -0.051639   -2.000022
H      1.103319    1.847477    0.105292
H      1.291339    1.948335   -1.729215
H      2.189282   -0.305175   -1.635650
H      1.923669   -0.340403    0.063736
