19
4755_+.log
C     -1.912865   -0.653987   -1.062665
C     -1.015092    0.247804   -0.249640
C     -1.331706    0.421191    1.245062
O      0.003027   -0.000949    1.615048
C      0.315934   -0.324661    0.276676
C      1.614024    0.361529   -0.096602
N      2.015794   -0.005832   -1.498666
H     -2.900304   -0.204363   -1.184293
H     -2.046465   -1.621994   -0.573861
H     -1.517910   -0.834967   -2.067117
H     -0.879974    1.214778   -0.746546
H     -2.083388   -0.273818    1.627823
H     -1.545884    1.430654    1.598269
H      0.415485   -1.413892    0.127325
H      1.519178    1.447012   -0.058456
H      2.421988    0.048339    0.566465
H      1.300081    0.281655   -2.170372
H      2.135767   -1.017495   -1.590978
H      2.894919    0.439030   -1.769543
