19
4756_+.log
C     -1.095606    1.374760   -0.256268
C     -0.849171    0.016438    0.343462
C     -2.054992   -0.872701    0.444486
O      0.000609   -0.002094    1.488205
C      0.487005   -0.618106    0.321828
C      1.698051    0.042488   -0.275114
N      1.623548   -0.005454   -1.780898
H     -1.513581    1.289958   -1.264310
H     -0.203811    2.004098   -0.275292
H     -1.837385    1.906215    0.343882
H     -2.485918   -1.063049   -0.541168
H     -2.819674   -0.388129    1.055328
H     -1.802472   -1.825378    0.910344
H      0.536630   -1.707039    0.366197
H      1.757554    1.090137    0.012903
H      2.625055   -0.455921    0.011172
H      0.792322    0.495530   -2.104393
H      1.553756   -0.968188   -2.117347
H      2.444278    0.418856   -2.218172
