19
4766_+.log
C     -1.458293    0.717290   -1.505113
C     -0.570401    0.100794   -0.454929
C     -0.907077    0.571873    0.942307
O     -0.001105    0.000203    1.885821
C     -0.097126   -1.310736   -0.638387
C      0.853703   -0.178202   -0.845676
N      1.929243   -0.000622    0.154930
H     -1.194810    0.363244   -2.502847
H     -1.382947    1.807220   -1.500963
H     -2.501577    0.447766   -1.325958
H     -1.932082    0.266666    1.173512
H     -0.858649    1.666216    0.985293
H     -0.290760    0.179551    2.784839
H      0.029559   -1.909384    0.256878
H     -0.410772   -1.861121   -1.516107
H      1.189809    0.066521   -1.845186
H      1.473401   -0.036430    1.098981
H      2.389052    0.904686    0.054981
H      2.640597   -0.729048    0.078146
