19
4768_+.log
C     -1.874827   -0.103204   -0.877273
C     -0.632360    0.743431   -0.719609
C     -0.316905    1.127182    0.720568
O     -0.000407   -0.000103    1.492377
C      1.180813   -0.612027    1.048211
C      1.017776   -1.132601   -0.364669
N      0.584138    0.000288   -1.248625
H     -2.000925   -0.459646   -1.902920
H     -2.744042    0.512681   -0.642851
H     -1.883042   -0.952930   -0.194669
H     -0.704918    1.645990   -1.332237
H      0.506196    1.858049    0.750701
H     -1.195009    1.595932    1.165516
H      2.026280    0.091295    1.105484
H      1.394750   -1.446566    1.716317
H      0.244009   -1.897171   -0.417398
H      1.948386   -1.535242   -0.766782
H      0.386058   -0.346420   -2.188595
H      1.358054    0.662552   -1.337390
