19
4799_+.log
C      1.023630   -0.772470   -2.609028
C      0.399801   -0.776540   -1.252463
N      1.091359   -0.000092   -0.190408
C     -0.263163    0.408179   -0.671747
C     -1.382299    0.285799    0.335032
C     -1.041285    0.823902    1.711672
O      0.001150    0.000574    2.231027
H      0.281624   -1.094713   -3.341606
H      1.865139   -1.465376   -2.656448
H      1.365101    0.224717   -2.896339
H      0.060026   -1.736519   -0.876713
H      1.083112   -0.311464    0.790673
H      1.885228    0.565743   -0.466146
H     -0.221316    1.320938   -1.257171
H     -2.248042    0.821803   -0.059579
H     -1.675972   -0.761746    0.440326
H     -0.719886    1.871248    1.663730
H     -1.928299    0.768113    2.347996
H      0.148946    0.191317    3.161608
