19
4800_+.log
C      0.114271   -1.643651   -1.755159
C      0.129743   -0.987140   -0.413944
N      1.217238    0.000595   -0.124553
C     -0.221330    0.426267   -0.152458
C     -0.631244    1.372163   -1.238129
C     -0.714531    0.783832    1.232465
O     -0.000438   -0.001427    2.153582
H      0.841222   -2.456749   -1.788628
H      0.320166   -0.955344   -2.574717
H     -0.873712   -2.077700   -1.920903
H      0.005315   -1.647862    0.437595
H      1.632329   -0.047141    0.804095
H      1.826496    0.285672   -0.882366
H     -0.318385    2.390916   -1.002377
H     -1.720480    1.365755   -1.317786
H     -0.229957    1.099581   -2.213169
H     -1.792870    0.587452    1.265159
H     -0.553205    1.855037    1.402461
H     -0.284219    0.187524    3.052098
