17
4801_+.log
C      0.587942   -1.138855   -2.385388
C      0.426259   -0.872447   -0.926454
N      1.427523   -0.000289   -0.264629
C      0.035045    0.458288   -0.393880
C     -0.626500    0.485560    0.976857
C     -1.981223    1.079525    1.074476
O     -0.000195    0.000616    1.884875
H     -0.362718   -1.494753   -2.786542
H      1.333306   -1.917865   -2.554372
H      0.872565   -0.241555   -2.938856
H      0.178369   -1.717318   -0.290742
H      1.643131   -0.213990    0.717911
H      2.154129    0.435352   -0.822164
H     -0.128266    1.269887   -1.093640
H     -2.639839    0.665706    0.304960
H     -1.916442    2.157245    0.887782
H     -2.397448    0.906942    2.064501
