17
4802_+.log
C     -1.560251    1.550947   -1.035469
C     -0.849080    0.244757   -0.931122
N      0.294110    0.000500   -1.879127
C      0.517220    0.126312   -0.406645
C      0.998944   -1.078761    0.338826
C      0.643009   -0.925998    1.806228
O      0.000016   -0.000233    2.209042
H     -2.097491    1.719845   -0.100050
H     -2.285570    1.545511   -1.850074
H     -0.865815    2.382816   -1.172835
H     -1.469851   -0.642395   -0.848715
H      0.387981   -0.913698   -2.307408
H      0.583750    0.768591   -2.475062
H      1.008825    1.061572   -0.160126
H      2.082625   -1.207201    0.245266
H      0.539181   -2.005712   -0.026411
H      1.012259   -1.725261    2.474030
