16
4803_+.log
C     -0.973984   -0.069551   -2.820344
C     -0.242039   -0.557057   -1.614641
N      1.122440   -0.000278   -1.371979
C     -0.026156    0.281555   -0.421104
C      0.076076   -0.265450    0.934211
N     -0.068951    0.569082    1.882678
O      0.000640    0.000560    3.094537
H     -2.032628   -0.311190   -2.708332
H     -0.611396   -0.560158   -3.724946
H     -0.889651    1.013190   -2.937436
H     -0.254165   -1.629428   -1.442476
H      1.858925   -0.620832   -1.053561
H      1.441703    0.757898   -1.965874
H     -0.335197    1.320107   -0.472186
H      0.232181   -1.331538    1.106005
H     -0.140098    0.724747    3.717609
