19
4807_+.log
C      0.328096   -1.525507   -1.607134
C      0.255647   -0.262335   -0.804379
N      1.525112   -0.000164   -0.047992
C     -0.509368    0.923583   -1.276148
C     -0.999918    0.139344   -0.087407
C     -0.928223    0.759502    1.287457
O      0.000777    0.002128    2.072766
H     -0.620367   -1.692535   -2.117164
H      0.516270   -2.394656   -0.970449
H      1.106056   -1.467595   -2.373945
H      1.997371    0.849070   -0.355995
H      2.173812   -0.777509   -0.172059
H      1.275359    0.058688    0.971329
H     -0.119487    1.915987   -1.073022
H     -1.021905    0.833576   -2.225119
H     -1.832860   -0.535360   -0.246181
H     -1.916375    0.743719    1.751223
H     -0.601971    1.804269    1.231929
H     -0.039309    0.275833    2.994683
