19
4814_+.log
C      0.152691   -1.783616   -1.009014
C      0.156430   -0.367461   -0.503949
N      1.572695   -0.001417   -0.110812
C     -0.481154    0.781237   -1.305139
C     -0.981255    1.403074    0.017976
C     -0.722977    0.043819    0.698144
O     -0.001281   -0.006010    1.894898
H      0.756701   -1.892434   -1.914771
H     -0.866997   -2.074472   -1.261854
H      0.519855   -2.483896   -0.253317
H      2.246839   -0.321665   -0.806477
H      1.777061   -0.427825    0.800371
H      1.680606    1.006932    0.009993
H     -1.292651    0.397374   -1.922971
H      0.173674    1.377110   -1.943655
H     -1.997410    1.791629    0.038398
H     -0.313324    2.175086    0.408484
H     -1.620628   -0.580103    0.729502
H     -0.583105    0.013221    2.659926
