19
4816_+.log
C     -2.293014    0.443916   -0.711085
C     -0.974862   -0.172498   -0.353736
N      0.137670   -0.003509   -1.392270
C      1.149610    0.270164   -0.278114
C      2.025774   -0.920601   -0.005904
C     -0.047901    0.492074    0.688165
O     -0.001813   -0.001018    1.967566
H     -2.960318    0.356645    0.149104
H     -2.770282   -0.062437   -1.552491
H     -2.191068    1.507669   -0.941807
H     -1.062408   -1.245175   -0.165721
H     -0.021985    0.804870   -1.992538
H      0.333677   -0.808616   -1.985589
H      1.739646    1.155241   -0.513356
H      1.454686   -1.839684    0.154514
H      2.609347   -0.726662    0.895913
H      2.730320   -1.090703   -0.822317
H     -0.276028    1.556951    0.779109
H      0.175388   -0.947181    1.979636
