17
4818_+.log
C     -0.391834   -1.990683   -0.221082
C      0.533092   -0.795556   -0.134751
N      0.548152    0.000741   -1.418552
C     -0.438614    1.142487   -1.263635
C     -0.324005    1.521896    0.196090
C      0.054347    0.232902    0.902685
O     -0.006287   -0.001179    2.066027
H     -0.028024   -2.727169   -0.940332
H     -1.413465   -1.703360   -0.481336
H     -0.423134   -2.462976    0.761511
H      1.555439   -1.103512    0.090155
H      0.318139   -0.583246   -2.223161
H      1.481719    0.378257   -1.585097
H     -1.423272    0.745661   -1.510752
H     -0.183823    1.925548   -1.975348
H      0.469879    2.256273    0.371369
H     -1.244153    1.933358    0.609736
