16
4820_+.log
C      1.633259   -1.387642    0.091375
C      0.526092   -0.480183   -0.245156
N      0.251997   -0.000472   -1.436791
C     -0.954952    0.830903   -1.419400
C     -1.123305    1.097070    0.080748
N     -0.342513   -0.009418    0.641730
O     -0.000219   -0.000014    1.960671
H      2.302027   -0.891493    0.799171
H      2.190042   -1.676218   -0.797660
H      1.244446   -2.279850    0.586384
H      0.687604   -0.340971   -2.279039
H     -0.814688    1.738136   -2.004056
H     -1.796644    0.265901   -1.826722
H     -0.677664    2.042580    0.402328
H     -2.160375    1.052092    0.407967
H     -0.685899   -0.499055    2.427412
