15
4841_+.log
C     -0.609865   -1.298896   -1.309210
C     -0.439427   -0.064902   -0.464329
N     -0.422555    1.159077   -1.339924
C     -1.236349    0.067081    0.838260
O      0.000130   -0.000807    1.601193
C      0.768476   -0.032174    0.492722
O      1.937472    0.000548    0.354229
H      0.195268   -1.390460   -2.042340
H     -1.573386   -1.300589   -1.826506
H     -0.572074   -2.182456   -0.671041
H      0.419475    1.142660   -1.926000
H     -0.398029    2.026661   -0.797176
H     -1.236064    1.192941   -1.960714
H     -1.889220   -0.773575    1.066585
H     -1.749785    1.014090    1.016372
