17
4845_+.log
C     -0.764206   -0.885791   -1.728602
C     -0.031133   -0.205338   -0.594669
N      1.441199   -0.000173   -1.076612
C      0.002351   -0.979475    0.724621
O     -0.000556   -0.000191    1.763190
C     -0.434695    1.142893    1.204433
C     -0.524840    1.123934   -0.128343
H     -0.351841   -1.873766   -1.951816
H     -0.740803   -0.282921   -2.639760
H     -1.809897   -1.012594   -1.450295
H      1.879124   -0.876226   -1.370594
H      1.997835    0.414315   -0.326733
H      1.460820    0.646341   -1.867330
H      0.865718   -1.634451    0.858998
H     -0.908594   -1.577020    0.812704
H     -0.656949    1.941409    1.899806
H     -0.873697    1.923655   -0.764063
