16
4853_+.log
C     -0.704185   -0.850469   -1.801066
C     -0.015635   -0.238307   -0.606265
N      1.467701    0.000255   -0.970530
C     -0.068849   -1.009040    0.697115
O      0.000611   -0.000207    1.708217
N     -0.454017    1.170668    1.176347
C     -0.526954    1.081707   -0.090833
H     -0.288284   -1.829293   -2.053190
H     -0.637274   -0.203749   -2.679347
H     -1.761914   -0.985071   -1.574775
H      1.916957   -0.863784   -1.283374
H      1.978389    0.356210   -0.157565
H      1.554571    0.689459   -1.720839
H      0.737652   -1.725985    0.861278
H     -1.031457   -1.523549    0.775615
H     -0.874978    1.919204   -0.682761
