19
4882_+.log
C     -2.081642    1.104635    0.653283
C     -0.600746    0.921240    0.589332
O     -0.000647   -0.002035    1.491828
C      0.079053   -0.302488    0.116464
C     -0.641154   -1.530589   -0.362407
C      1.506912   -0.157929   -0.354551
N      1.569723   -0.001047   -1.852233
H     -2.332200    1.722800    1.517598
H     -2.613010    0.159667    0.752729
H     -2.440988    1.622234   -0.239255
H     -0.035155    1.852396    0.505510
H     -0.062847   -2.429746   -0.132106
H     -0.838514   -1.508233   -1.440366
H     -1.605258   -1.626886    0.131345
H      2.100819   -1.040370   -0.107852
H      1.974465    0.722605    0.084502
H      1.160676   -0.812948   -2.320093
H      2.531843    0.099179   -2.181876
H      1.044579    0.823751   -2.151377
