19
4978_+.log
C     -1.718147   -1.763315    0.000000
C     -1.602653   -0.246962   -0.000000
C     -0.185537    0.272545   -0.000000
N     -0.218262    1.789958    0.000000
C      0.889601   -0.131597    1.016177
O      1.894497   -0.002136   -0.000000
C      0.889601   -0.131596   -1.016178
H     -2.770738   -2.046470    0.000000
H     -1.261289   -2.208594    0.884941
H     -1.261288   -2.208595   -0.884940
H     -2.122860    0.155255    0.878680
H     -2.122860    0.155254   -0.878682
H     -0.698412    2.152538    0.826507
H     -0.698412    2.152539   -0.826507
H      0.744020    2.144481    0.000000
H      0.776191   -1.166970    1.347932
H      1.068402    0.512242    1.882287
H      1.068402    0.512243   -1.882287
H      0.776191   -1.166969   -1.347933
