19
4996_+.log
C     -1.803300    0.694859   -1.617544
C     -1.505358    0.711119   -0.128328
C     -0.288326   -0.058520    0.302520
O     -0.000277    0.002026    1.674965
C      0.148208   -1.347834   -0.295658
C      0.986335   -0.124181   -0.517802
N      2.197223   -0.002060    0.312721
H     -2.700758    1.280395   -1.817238
H     -1.991707   -0.315216   -1.986066
H     -0.997239    1.136802   -2.207821
H     -2.356305    0.296685    0.422220
H     -1.385355    1.748692    0.208371
H     -0.452770    0.758306    2.064850
H      0.509599   -2.103876    0.393478
H     -0.370416   -1.733434   -1.163116
H      1.089302    0.315761   -1.499569
H      1.854600    0.003096    1.294206
H      2.688551    0.875865    0.140193
H      2.857087   -0.770345    0.180956
