19
4997_+.log
C     -1.345657    1.736139   -0.000000
C      0.150121    1.466612    0.000000
C      0.578795    0.007612    0.000000
O      1.956795    0.001589   -0.000000
C     -0.136267   -0.864814    1.068726
N     -1.090635   -1.351936    0.000000
C     -0.136267   -0.864814   -1.068726
H     -1.526315    2.811219   -0.000000
H     -1.849607    1.350661    0.893163
H     -1.849607    1.350660   -0.893164
H      0.615779    1.927969   -0.875000
H      0.615779    1.927969    0.875000
H      2.317380   -0.890935   -0.000000
H      0.467972   -1.704629    1.410938
H     -0.637089   -0.388780    1.909205
H     -1.320614   -2.344213   -0.000000
H     -1.957765   -0.814823    0.000000
H     -0.637090   -0.388779   -1.909204
H      0.467972   -1.704628   -1.410938
