19
5045_+.log
C     -1.629165   -0.431770   -1.603267
C     -0.228621   -0.038937   -1.250557
C      0.593382    0.541938   -2.117513
C      0.172873   -0.378458    0.155779
N      1.593275   -0.000794    0.458469
C     -0.669498    0.281217    1.241971
O     -0.004204   -0.008243    2.451133
H     -1.813076   -0.281532   -2.665740
H     -2.366124    0.158875   -1.051225
H     -1.816985   -1.484325   -1.369756
H      0.263342    0.759489   -3.125761
H      1.619334    0.824795   -1.904562
H      0.130257   -1.462143    0.309593
H      1.775644    0.966539    0.182574
H      2.262767   -0.602251   -0.020781
H      1.703880   -0.076652    1.479816
H     -1.675749   -0.143512    1.213165
H     -0.740182    1.362552    1.063589
H     -0.493761    0.329100    3.206678
