21
5050_+.log
C     -1.203615    1.239225   -0.807153
C     -0.871373   -0.201273   -0.437743
C     -1.167656   -1.162155   -1.584237
C      0.552008   -0.385434    0.083421
N      1.539454   -0.024999   -1.001738
C      0.912916    0.421888    1.322485
O     -0.005038    0.042456    2.299547
H     -1.070157    1.929073    0.027652
H     -2.248918    1.305976   -1.111426
H     -0.622370    1.607183   -1.662250
H     -1.495090   -0.485151    0.414549
H     -0.643417   -0.895609   -2.511150
H     -2.229471   -1.135782   -1.831356
H     -0.919010   -2.195449   -1.328492
H      0.725851   -1.444389    0.292118
H      1.446235    0.961461   -1.254929
H      1.352462   -0.577977   -1.840786
H      2.504643   -0.192105   -0.713006
H      0.863997    1.499110    1.100821
H      1.947845    0.189164    1.618152
H      0.203780    0.468739    3.135540
