18
5068_+.log
C     -2.283495   -0.019340   -0.874215
C     -1.080392    0.119004   -0.010074
C      0.218499    0.612589   -0.600620
C      1.214896   -0.526414   -0.695812
N      2.581014   -0.000004   -1.060972
N     -1.187378   -0.174632    1.222508
O     -0.000884    0.000658    1.914792
H     -3.122011   -0.399414   -0.293464
H     -2.093826   -0.701999   -1.708584
H     -2.559494    0.948105   -1.304360
H      0.614213    1.391166    0.061400
H      0.034533    1.050061   -1.585263
H      0.946875   -1.254174   -1.461985
H      1.326128   -1.029970    0.263320
H      2.561183    0.501058   -1.951893
H      3.268400   -0.752354   -1.139243
H      2.912236    0.653716   -0.347736
H     -0.248936   -0.191507    2.825215
