21
5103_+.log
C     -2.733865   -0.102875   -1.995555
C     -1.854887    0.406454   -0.865810
C     -0.477918   -0.244867   -0.866594
C      0.438333    0.290264    0.216103
O      0.001460   -0.002651    1.534543
C      1.809012   -0.359633    0.152492
N      2.542651    0.001690    1.410578
H     -3.715704    0.371349   -1.971101
H     -2.884458   -1.182702   -1.924570
H     -2.285957    0.109560   -2.969278
H     -2.361161    0.211565    0.087644
H     -1.743169    1.493682   -0.945714
H      0.000279   -0.074501   -1.838314
H     -0.575305   -1.329385   -0.743389
H      0.545229    1.380041    0.096061
H     -0.890644    0.328161    1.675273
H      2.393671   -0.038208   -0.707435
H      1.713447   -1.445888    0.150511
H      2.892412    0.960575    1.387563
H      3.325946   -0.620697    1.607233
H      1.839928   -0.061169    2.164760
