21
5112_+.log
C     -2.122536   -0.231891   -1.624086
C     -0.630807   -0.434791   -1.399422
C     -0.148969    0.152794   -0.087571
C     -0.760290   -0.481587    1.151438
O      0.000547   -0.006256    2.241703
N      1.346734    0.002309    0.059348
C      2.172355    0.998985   -0.664339
H     -2.402392   -0.596932   -2.612209
H     -2.392509    0.825448   -1.573790
H     -2.726034   -0.774173   -0.894600
H     -0.394499   -1.505976   -1.421731
H     -0.081804    0.028409   -2.224709
H     -0.325516    1.231584   -0.051573
H     -1.808017   -0.178716    1.221597
H     -0.721034   -1.577299    1.081106
H     -0.342560   -0.340668    3.075007
H      1.611545   -0.941382   -0.228520
H      1.514671    0.063521    1.075038
H      1.957867    0.945047   -1.728984
H      3.224584    0.781972   -0.488350
H      1.930892    1.989223   -0.283470
