19
5132_+.log
C     -0.154843    1.749120   -0.895736
C     -0.004223    0.253454   -0.668263
C     -0.418142   -0.568932   -1.870652
N      1.461154    0.000809   -0.355900
C     -0.751167   -0.149508    0.596448
C     -0.422079   -1.315520    1.405026
O     -0.001580   -0.001721    1.791891
H      0.411668    2.076714   -1.771267
H      0.164947    2.324496   -0.023270
H     -1.203812    1.982719   -1.080072
H      0.118539   -0.260092   -2.770706
H     -1.482655   -0.420743   -2.058822
H     -0.259969   -1.637814   -1.706255
H      2.068413    0.651683   -0.852752
H      1.750267   -0.949018   -0.589588
H      1.553673    0.139978    0.668031
H     -1.765213    0.240544    0.638609
H     -1.185909   -1.753399    2.038546
H      0.376909   -1.996238    1.118682
