19
5134_+.log
C     -1.154469   -0.006176   -1.598833
C     -0.184784   -0.193924   -0.440803
C      1.129374    0.546032   -0.628402
N      1.904868    0.000221   -1.798782
C     -0.771892    0.296773    0.862718
C     -1.269336   -0.626211    1.876570
O     -0.000036    0.000356    2.008771
H     -0.785288   -0.421631   -2.542447
H     -1.384384    1.050811   -1.758151
H     -2.093694   -0.520583   -1.391841
H      0.040587   -1.260123   -0.306606
H      0.975780    1.608052   -0.829799
H      1.765785    0.435287    0.250208
H      1.362415    0.074811   -2.662024
H      2.125830   -0.988078   -1.657841
H      2.785352    0.500440   -1.935041
H     -1.181151    1.307575    0.836940
H     -1.241004   -1.695980    1.685960
H     -2.025713   -0.289313    2.578465
