17
5137_+.log
C     -0.379253    1.002816   -3.339734
C      0.231211    0.107213   -2.576012
C     -0.405603   -0.485129   -1.368671
N      0.291107    0.000558   -0.112769
C     -0.277729   -0.528432    1.158004
C      0.515020   -0.081564    2.380231
O      0.001704   -0.001693    3.448827
H      0.098103    1.403973   -4.225548
H     -1.384316    1.353035   -3.124710
H      1.224528   -0.250863   -2.836714
H     -1.452149   -0.194551   -1.272069
H     -0.336852   -1.575038   -1.344877
H      1.282986   -0.242776   -0.179559
H      0.258099    1.023609   -0.116797
H     -1.313733   -0.201896    1.245596
H     -0.257003   -1.620531    1.102282
H      1.595757    0.131216    2.222006
