21
5142_+.log
C     -0.222979    1.497000   -0.932879
C      0.162232    0.034303   -0.794877
C      0.401794   -0.610698   -2.147264
N      1.481652   -0.001115   -0.029498
C     -0.835653   -0.779822    0.034940
C     -1.205495   -0.202573    1.386961
O     -0.001449    0.004465    2.127751
H     -1.205007    1.571496   -1.401418
H      0.484235    2.030372   -1.573443
H     -0.270164    2.008131    0.030622
H     -0.510285   -0.561573   -2.743034
H      0.676272   -1.664707   -2.050364
H      1.185687   -0.092192   -2.705368
H      2.144158    0.680720   -0.397745
H      1.911029   -0.925024   -0.083938
H      1.260452    0.193119    0.970486
H     -0.445573   -1.795580    0.166692
H     -1.750018   -0.880745   -0.554744
H     -1.855608   -0.907887    1.911524
H     -1.747745    0.742064    1.277407
H     -0.197895    0.305619    3.019213
