21
5147_+.log
C     -1.278036    0.921472   -1.699615
C     -0.720219   -0.118765   -0.734363
C      0.433837   -0.892531   -1.353351
N      1.589724    0.023216   -1.668985
C     -0.389490    0.488690    0.630077
C      0.033784   -0.512869    1.699695
O     -0.022838    0.024737    2.990013
H     -1.512358    0.490208   -2.676501
H     -0.597997    1.769442   -1.845856
H     -2.199917    1.347735   -1.302947
H     -1.492705   -0.880612   -0.576509
H      0.827431   -1.665099   -0.693122
H      0.146452   -1.352836   -2.299615
H      1.929034    0.479524   -0.819705
H      1.293914    0.759059   -2.314284
H      2.369931   -0.479349   -2.094514
H     -1.285871    0.995920    0.996323
H      0.363374    1.287615    0.536125
H      1.032508   -0.930242    1.490896
H     -0.663903   -1.356153    1.698530
H      0.689522    0.655563    3.122614
