19
5152_+.log
C     -1.357014    1.637148   -0.962731
C     -1.190536    0.142645   -1.190883
C     -0.261591   -0.551939   -0.200631
N      1.129182    0.001313   -0.212128
C      2.178280   -0.884487   -0.775546
C     -0.731355   -0.436636    1.241382
O     -0.002137   -0.006418    2.091577
H     -2.067693    2.042790   -1.682897
H     -0.430091    2.203721   -1.103606
H     -1.736992    1.863963    0.036353
H     -0.838301   -0.061116   -2.206766
H     -2.159725   -0.358428   -1.111336
H     -0.195724   -1.618036   -0.442111
H      1.124952    0.897109   -0.701569
H      1.318947    0.213531    0.789290
H      1.932618   -1.120041   -1.809356
H      2.220298   -1.795837   -0.182176
H      3.136966   -0.370646   -0.728115
H     -1.759438   -0.772156    1.453740
