18
5167_+.log
C     -1.598671    0.069665   -1.260453
C     -0.285086   -0.218951   -0.539745
C      0.912268    0.446868   -1.206025
N      1.059260   -0.002435   -2.638596
C     -0.328501    0.249700    0.884509
N      0.088007   -0.537392    1.785128
O      0.003158   -0.001146    3.030167
H     -2.429489   -0.375046   -0.712050
H     -1.639739   -0.360363   -2.267112
H     -1.789638    1.144134   -1.333447
H     -0.103368   -1.299358   -0.502502
H      1.842949    0.188161   -0.701000
H      0.812355    1.533697   -1.234234
H      1.190588   -1.015309   -2.689374
H      1.858673    0.440942   -3.094786
H      0.219819    0.225487   -3.175794
H     -0.715192    1.243031    1.121760
H      0.311108   -0.703241    3.614052
