21
5174_+.log
C     -1.490454    0.670978   -2.073172
C     -0.140656    0.924022   -1.421648
C      0.477579   -0.337171   -0.839261
N      1.868251    0.000035   -0.347275
C     -0.238440   -0.902672    0.378412
O      0.000804   -0.001288    1.423920
C     -0.645633   -0.343559    2.641403
H     -1.852596    1.586796   -2.540515
H     -2.244643    0.359286   -1.349134
H     -1.424779   -0.093291   -2.851239
H      0.544682    1.330056   -2.175517
H     -0.235945    1.675843   -0.631930
H      0.584409   -1.104460   -1.609151
H      1.735699    0.445147    0.573728
H      2.351542    0.639491   -0.978126
H      2.446898   -0.830270   -0.215706
H     -1.306486   -1.002985    0.157341
H      0.142470   -1.904646    0.628634
H     -0.372487    0.415265    3.371557
H     -0.317305   -1.326683    2.994182
H     -1.731638   -0.347892    2.510924
