17
5177_+.log
C     -1.388823   -1.284219   -0.357510
C     -0.868723    0.128572   -0.070255
C     -0.430600    0.877318   -1.328398
N      0.807350    0.266491   -1.904436
C      0.279013    0.056421    0.926916
O     -0.000526   -0.006462    2.208549
O      1.436667    0.009897    0.563977
H     -1.765067   -1.758135    0.549878
H     -0.606688   -1.938464   -0.751213
H     -2.210754   -1.246467   -1.074639
H     -1.682584    0.721247    0.359869
H     -0.180199    1.912351   -1.093810
H     -1.217772    0.871367   -2.082127
H      1.417023    0.096729   -1.046916
H      1.268784    0.886720   -2.567933
H      0.624326   -0.620231   -2.371922
H     -0.945259    0.067113    2.393236
