17
5208_+.log
C      0.033372   -1.769077   -0.853960
C     -0.141970   -0.297210   -0.562815
C     -1.543663    0.165267   -0.901881
N     -1.725727    1.580928   -0.438991
O     -0.000676    0.000573    0.837008
C      1.278227    0.091277    1.298987
O      2.242919   -0.001756    0.615491
H     -0.147208   -1.970841   -1.912085
H     -0.657701   -2.368403   -0.258006
H      1.054099   -2.072746   -0.626657
H      0.604104    0.285302   -1.115230
H     -2.289894   -0.432274   -0.376702
H     -1.735008    0.126694   -1.973492
H     -1.416371    1.631334    0.538505
H     -2.697765    1.887872   -0.498167
H     -1.153512    2.232293   -0.980553
H      1.257316    0.267375    2.381951
