18
5211_+.log
C      1.540825    1.406551   -0.000422
C      0.282426    0.587457   -0.164881
C      0.413660   -0.543060   -1.182864
N      0.492668    0.000123   -2.581375
O      0.000083    0.000821    1.080934
N     -1.287739   -0.538483    1.053842
C     -1.627994   -0.978394    2.186681
H      1.385582    2.169581    0.762256
H      1.814213    1.931736   -0.920927
H      2.377867    0.777794    0.309946
H     -0.562300    1.229494   -0.455922
H     -0.465755   -1.185000   -1.136713
H      1.314755   -1.133015   -1.011428
H     -0.337739    0.555168   -2.802041
H      0.557329   -0.750135   -3.272062
H      1.308697    0.604532   -2.698643
H     -2.617094   -1.415562    2.254462
H     -0.982043   -0.927577    3.060893
