15
5213_+.log
C     -2.250277   -0.548765   -1.097565
C     -1.798594   -0.410785    0.148689
C     -0.405359   -0.173718    0.484537
O      0.000266   -0.002603    1.613595
C      0.648729   -0.087156   -0.617205
C      1.423491    1.172041   -0.684567
N      1.976544    0.000536    0.010409
H     -3.304165   -0.707096   -1.292944
H     -1.607192   -0.506240   -1.970159
H     -2.463861   -0.451417    1.004443
H      0.595267   -0.719379   -1.493525
H      1.930086    1.436703   -1.603615
H      1.153526    1.983222   -0.019493
H      1.872224    0.004113    1.036656
H      2.762933   -0.502182   -0.385472
