19
5215_+.log
C     -0.936150   -1.747178    0.017640
C     -0.643977   -0.263037    0.172882
C     -1.894363    0.584516    0.003719
O     -0.000270   -0.000348    1.414436
C      0.389128    0.175898   -0.851267
C      1.236645    1.354769   -0.626470
N      1.795379    0.000281   -0.405601
H     -1.382264   -1.963174   -0.955212
H     -1.647438   -2.066395    0.782273
H     -0.029806   -2.346867    0.129498
H     -2.328631    0.455404   -0.989940
H     -1.675777    1.642172    0.158904
H     -2.648203    0.278258    0.732062
H     -0.568038   -0.264403    2.144569
H      0.218623   -0.136816   -1.874758
H      1.117185    1.914969    0.291424
H      1.660664    1.877486   -1.473594
H      2.495470   -0.363811   -1.040553
H      1.867001   -0.281726    0.572582
