21
5219_+.log
C     -1.828463   -0.884852   -2.881630
C     -0.866722   -1.025776   -1.712639
C     -0.905783    0.186075   -0.816987
O     -0.001755   -0.004403    0.277620
C      0.074923    1.078885    1.159788
C      1.024278    0.634863    2.252981
N      2.205342    0.008831    1.571284
H     -1.786515   -1.766374   -3.521916
H     -1.585094   -0.016405   -3.498477
H     -2.859805   -0.775030   -2.538500
H      0.154269   -1.164888   -2.082954
H     -1.118036   -1.910973   -1.121020
H     -1.913440    0.342313   -0.413281
H     -0.614820    1.091494   -1.365396
H     -0.895664    1.321607    1.608225
H      0.444358    1.981993    0.650855
H      1.363285    1.450744    2.888823
H      0.572256   -0.146126    2.863741
H      2.840227    0.708447    1.184423
H      1.802801   -0.527509    0.783559
H      2.739297   -0.606980    2.183599
