21
5232_+.log
C     -2.302351    0.294327    0.035010
C     -0.804513    0.451513   -0.192294
C     -0.109300    1.030148    1.036815
O      0.013876    0.012814    2.000789
C     -0.208147   -0.900881   -0.599163
C      1.298554   -0.967441   -0.675203
N      1.833811    0.008051   -1.696966
H     -2.792198   -0.154620   -0.831687
H     -2.772803    1.261339    0.219894
H     -2.488032   -0.346766    0.899153
H     -0.669172    1.179771   -1.007264
H     -0.692176    1.879494    1.408690
H      0.887766    1.431201    0.775615
H      0.120901    0.397852    2.873926
H     -0.649361   -1.230211   -1.546616
H     -0.498168   -1.645985    0.145780
H      1.650196   -1.952913   -0.981406
H      1.762398   -0.706626    0.276338
H      1.461085   -0.195557   -2.626587
H      2.853214   -0.018480   -1.752449
H      1.553765    0.960928   -1.455089
