19
5243_+.log
C     -2.805264    0.380739    1.059665
C     -1.900777    0.436457   -0.154937
C     -0.460249    0.229806    0.148839
O     -0.000448    0.000581    1.242403
C      0.541317    0.318539   -1.013452
N      1.872753   -0.000706   -0.437311
C      2.474722   -1.284583   -0.880458
H     -3.840349    0.539460    0.758433
H     -2.538136    1.149462    1.785296
H     -2.737717   -0.586776    1.557273
H     -2.181129   -0.316621   -0.904716
H     -1.987804    1.394665   -0.685264
H      0.297255   -0.386884   -1.808193
H      0.543969    1.323455   -1.437972
H      2.529914    0.762527   -0.587070
H      1.650654   -0.047917    0.587733
H      2.661294   -1.244790   -1.951948
H      1.780099   -2.089437   -0.647077
H      3.408518   -1.438557   -0.342338
