21
5244_+.log
C     -2.623166   -1.204328    0.618932
C     -1.540120   -0.669148   -0.303483
C     -0.713387    0.436482    0.335355
O     -0.004654    0.008270    1.486905
C      0.384456    0.987293   -0.562875
N      1.506781    0.000120   -0.604566
C      2.790777    0.530107   -1.124350
H     -3.237487   -1.942695    0.103260
H     -3.285563   -0.403933    0.958029
H     -2.205683   -1.703407    1.497390
H     -1.998045   -0.265118   -1.212394
H     -0.890227   -1.497571   -0.615272
H     -1.373026    1.277499    0.584165
H     -0.613220   -0.306751    2.161279
H      0.799536    1.902836   -0.140800
H      0.043015    1.177629   -1.579946
H      1.221474   -0.813695   -1.150194
H      1.600032   -0.328467    0.367129
H      2.640614    0.893000   -2.139454
H      3.533775   -0.265461   -1.117776
H      3.114952    1.346254   -0.481825
