14
5248_+.log
C     -0.638994   -1.758913    0.338634
C     -0.728355   -0.266609    0.097094
C     -0.297598    0.582806    1.419063
O      0.001467    0.000474    2.391599
C      0.100188    0.235537   -0.941720
N      1.194460   -0.000057   -1.651106
N      0.371924    1.309441   -1.689354
H     -1.186207   -2.009010    1.246511
H      0.395717   -2.073777    0.478852
H     -1.075878   -2.312034   -0.493031
H     -1.750009    0.114114   -0.050011
H     -0.376167    1.676994    1.312245
H      1.122646   -0.670449   -2.423519
H     -0.255331    1.463921   -2.486643
