19
5280_+.log
C     -1.508726   -1.032370   -1.164092
C     -0.759051   -0.205711   -0.143389
C     -0.741743   -0.838383    1.233431
O      0.000745   -0.005104    2.084102
N      0.644243    0.000682   -0.598323
C      0.994367    1.054208   -1.574320
C      1.440776    1.170843   -0.178124
H     -2.549607   -1.135836   -0.855473
H     -1.088018   -2.037140   -1.255206
H     -1.501918   -0.560666   -2.147897
H     -1.181167    0.800264   -0.063906
H     -1.783948   -0.943823    1.556403
H     -0.311272   -1.849431    1.173586
H     -0.076418   -0.309895    2.992380
H      1.168841   -0.864115   -0.693619
H      1.694094    0.750877   -2.341964
H      0.144707    1.636775   -1.907272
H      0.915669    1.827032    0.501419
H      2.468214    0.947996    0.077096
