19
5312_+.log
C     -0.073311   -1.895346   -1.841980
C      0.618510   -0.556772   -1.746400
N      0.526225   -0.001084   -0.380810
C      0.677871    1.438791   -0.094198
C     -0.631415    0.789549    0.093633
C     -1.126778    0.425511    1.465947
O     -0.000026   -0.000889    2.190814
H      0.023864   -2.275225   -2.859610
H     -1.138477   -1.818661   -1.615864
H      0.377913   -2.630722   -1.172384
H      1.681985   -0.629291   -1.983045
H      0.174339    0.181329   -2.417203
H      0.894882   -0.591727    0.366060
H      1.286079    1.653538    0.774774
H      0.843155    2.047348   -0.973712
H     -1.385969    0.946041   -0.668790
H     -1.599015    1.311437    1.906280
H     -1.882787   -0.364236    1.384387
H     -0.243048   -0.235733    3.090464
