19
5321_+.log
C      0.122778    1.689098   -1.199329
C      0.329049    0.213920   -0.953470
N      1.767095    0.005388   -0.519083
C     -0.489499   -0.429441    0.163461
C     -0.765537   -1.895788    0.009139
C     -1.306226    0.395337    1.051880
O      0.006002   -0.008846    1.437643
H     -0.900569    1.863367   -1.531508
H      0.785528    2.053597   -1.987969
H      0.297071    2.279762   -0.296951
H      0.204215   -0.351317   -1.879006
H      1.825302    0.338852    0.453246
H      2.426385    0.521593   -1.102027
H      2.031627   -0.980880   -0.523993
H     -1.226270   -2.290283    0.914095
H      0.148071   -2.471340   -0.174159
H     -1.442965   -2.070669   -0.829863
H     -1.432897    1.457655    0.875236
H     -2.107812   -0.087331    1.602638
