19
5324_+.log
C      1.816427   -1.440577   -0.620130
C      0.957436   -0.201714   -0.706153
N      0.511422   -0.000600   -2.144544
C     -0.271441   -0.262750    0.162688
O      0.000045   -0.000716    1.513598
C     -0.824325    0.930410    0.819859
C     -2.252932    1.020851    1.244370
H      2.130233   -1.566138    0.416819
H      2.717764   -1.362816   -1.232576
H      1.261243   -2.337426   -0.909502
H      1.529832    0.692714   -0.450504
H     -0.052126   -0.793219   -2.461590
H      1.314305    0.075308   -2.772411
H     -0.054868    0.844821   -2.241000
H     -0.928797   -1.117343   -0.018692
H     -0.319822    1.879142    0.629083
H     -2.677457    0.029360    1.407076
H     -2.846710    1.543460    0.490823
H     -2.327988    1.582737    2.177128
