19
5326_+.log
C     -0.095136   -0.098891   -3.437589
C     -0.351815   -0.796784   -2.125385
N      0.190546    0.000000   -0.973549
C     -0.021455   -0.616633    0.373418
C      0.555254    0.244846    1.460916
C     -0.264612    1.257530    2.134217
O     -0.000122   -0.000276    2.725054
H     -0.496725   -0.709028   -4.247411
H      0.972651    0.033106   -3.628078
H     -0.588570    0.874576   -3.486670
H      0.131094   -1.773607   -2.076194
H     -1.416526   -0.931432   -1.930038
H     -0.233160    0.930891   -0.981548
H      1.190681    0.152561   -1.123658
H      0.445687   -1.603006    0.350903
H     -1.095349   -0.740532    0.516686
H      1.639292    0.365022    1.451029
H     -1.296320    1.414950    1.825797
H      0.226253    2.105402    2.602303
