21
5328_+.log
C      2.149528   -1.506760   -1.600058
C      0.700521   -1.085541   -1.644444
N      0.424517    0.000419   -0.660383
C     -0.972291    0.537265   -0.677291
C     -1.214251    1.443597    0.515415
C     -1.234064    0.707422    1.839391
O     -0.000884   -0.002161    1.965226
H      2.313642   -2.305120   -2.324391
H      2.430297   -1.889878   -0.616742
H      2.819599   -0.684552   -1.862548
H      0.029901   -1.908911   -1.393918
H      0.416909   -0.705194   -2.627595
H      1.078765    0.768724   -0.817311
H      0.588942   -0.314618    0.315096
H     -1.638074   -0.328334   -0.661060
H     -1.114009    1.059135   -1.624370
H     -2.179839    1.935424    0.375474
H     -0.463685    2.241280    0.540623
H     -2.076099    0.006245    1.872307
H     -1.348925    1.422014    2.658688
H      0.057528   -0.422064    2.827932
