21
5335_+.log
C      0.996554   -0.006878   -2.082638
C      0.597437   -0.350286   -0.665152
N      1.746345   -0.001792    0.255949
C     -0.660884    0.352068   -0.143930
C     -1.830489    0.172798   -1.104965
C     -1.080901   -0.152579    1.230559
O      0.000806    0.000395    2.152227
H      1.955155   -0.461312   -2.345822
H      1.072134    1.074937   -2.225781
H      0.258487   -0.387398   -2.786857
H      0.472894   -1.432890   -0.559112
H      2.047709    0.961333    0.103016
H      2.550604   -0.609128    0.105608
H      1.388722   -0.080334    1.237130
H     -0.439663    1.425475   -0.060371
H     -2.021754   -0.884401   -1.308124
H     -1.656913    0.678005   -2.054242
H     -2.738920    0.596783   -0.674304
H     -1.943525    0.425231    1.572710
H     -1.375624   -1.207191    1.166699
H     -0.263761   -0.272900    3.035210
