17
5337_+.log
C     -0.548106    1.555604   -2.005028
C     -0.097833    0.133438   -1.728420
N      1.388143    0.011575   -2.077580
C     -0.250533   -0.290127   -0.355052
C     -0.347759   -0.626690    0.796136
C     -0.454871   -1.006818    2.206282
O      0.037846   -0.022577    3.071814
H     -0.393716    1.827408   -3.051912
H     -0.030500    2.267033   -1.358294
H     -1.614444    1.629211   -1.793634
H     -0.598318   -0.565569   -2.405593
H      1.933099    0.629356   -1.470992
H      1.570476    0.267268   -3.050544
H      1.716033   -0.943306   -1.918269
H     -1.497312   -1.278714    2.415193
H      0.143246   -1.907761    2.369572
H     -0.623313    0.665780    3.186818
