18
5439_+.log
C      3.621218    0.009187    0.512583
C      2.170089    0.007189    0.851360
N      1.303980    0.000226   -0.070741
O      0.000249    0.000977    0.464259
C     -0.894835   -0.016454   -0.600590
C     -2.265105    0.009465    0.043624
N     -3.324931   -0.007530   -1.019429
H      4.224957    0.015021    1.418487
H      3.879191    0.887715   -0.081852
H      3.883627   -0.873829   -0.073232
H      1.851496    0.011841    1.895096
H     -0.751511    0.857405   -1.253046
H     -0.766579   -0.921643   -1.212599
H     -2.425464   -0.862843    0.677275
H     -2.410957    0.913238    0.635214
H     -3.250575   -0.846340   -1.600272
H     -3.238845    0.802199   -1.638630
H     -4.262799    0.008422   -0.614033
