19
5451_+.log
C     -1.858649   -0.012353    2.540819
C     -1.353821    0.438115    1.198279
O     -0.001501   -0.002635    1.050124
C      0.589109    0.393771   -0.106606
C      1.813134   -0.336693   -0.534672
C      0.538087   -0.544186   -1.287046
N      0.431992    0.003467   -2.661270
H     -2.889382    0.319268    2.677822
H     -1.252115    0.410780    3.342514
H     -1.833959   -1.099978    2.622129
H     -1.961264    0.015412    0.385756
H     -1.383039    1.532101    1.111427
H      0.549805    1.464392   -0.327106
H      2.144727   -1.166870    0.076133
H      2.610425    0.240719   -0.989773
H      0.007135   -1.481586   -1.188671
H      0.862826    0.928945   -2.720420
H     -0.544507    0.101852   -2.950977
H      0.905751   -0.595522   -3.343879
