19
5454_+.log
C     -0.827174   -2.102757    0.743002
C     -0.857410   -0.589711    0.685568
O     -0.007024    0.005778    1.650998
C     -0.360533   -0.029334   -0.632371
C     -0.368381    1.492208   -0.853366
C      1.111235    1.399436   -1.237269
N      1.164169   -0.003863   -0.676704
H     -1.490392   -2.534692   -0.009383
H     -1.168724   -2.453255    1.719020
H      0.182718   -2.492991    0.587357
H     -1.888054   -0.229689    0.806259
H     -0.238596   -0.293829    2.534861
H     -0.735490   -0.595637   -1.484298
H     -1.042263    1.859820   -1.622715
H     -0.529378    2.038975    0.074422
H      1.295718    1.360670   -2.308975
H      1.821909    2.066417   -0.755407
H      1.491606   -0.021221    0.296760
H      1.645891   -0.713795   -1.223405
