19
5456_+.log
C     -1.822499   -1.226744    0.690549
C     -1.063101    0.076755    0.820475
O     -0.001706    0.001217    1.752321
C     -0.400370    0.486049   -0.475831
C      0.717436    1.444790   -0.492608
N      0.989272   -0.000084   -0.638251
C      1.499196   -0.581847   -1.881913
H     -2.285139   -1.489584    1.643759
H     -1.160303   -2.045200    0.398087
H     -2.623505   -1.139681   -0.046777
H     -1.753436    0.887610    1.088586
H     -0.331941   -0.257824    2.617182
H     -0.995853    0.390025   -1.376431
H      0.907176    2.020204   -1.389516
H      1.061548    1.863351    0.444229
H      1.322599   -0.419894    0.231180
H      1.051910   -0.062391   -2.727839
H      1.234519   -1.637759   -1.916401
H      2.581821   -0.464706   -1.910265
