17
5458_+.log
C     -1.534130   -0.841201    2.511407
C     -1.226989    0.029404    1.571134
O      0.000349    0.001337    0.939103
C      0.040934    0.532736   -0.328337
C      1.480697    0.755362   -0.806116
N      1.178445   -0.000580   -2.087722
C     -0.142618   -0.464508   -1.500065
H     -2.479524   -0.753217    3.027958
H     -0.854708   -1.632511    2.801757
H     -1.877915    0.843917    1.262751
H     -0.595132    1.418996   -0.425634
H      1.833312    1.767858   -0.986521
H      2.196321    0.192345   -0.209714
H      1.839594   -0.733488   -2.340319
H      1.064121    0.609963   -2.895044
H     -0.055847   -1.500563   -1.177752
H     -0.972442   -0.337500   -2.191738
