19
5460_+.log
C     -2.123731   -0.787431    0.619673
C     -1.028377    0.252686    0.561706
O      0.000846    0.004456    1.520092
C     -0.319743    0.292894   -0.782932
C      0.916892    1.208319   -0.777984
N      1.772754   -0.001934   -0.479732
C      0.654786   -0.880985   -0.992866
H     -2.593895   -0.792784    1.605374
H     -1.736125   -1.790657    0.427050
H     -2.904071   -0.567889   -0.111999
H     -1.455980    1.248736    0.738959
H     -0.376363   -0.046869    2.402876
H     -1.031551    0.466517   -1.587253
H      0.995246    1.978257   -0.013606
H      1.183286    1.598873   -1.758329
H      2.687914   -0.071237   -0.920355
H      1.840087   -0.115717    0.535691
H      0.840221   -1.118135   -2.038702
H      0.528691   -1.785132   -0.402700
