19
5463_+.log
C      0.687733    0.902796    2.721379
C     -0.133273   -0.153987    2.037775
O      0.001054    0.000024    0.618788
C     -0.706474   -0.946267   -0.121651
C     -0.475491   -0.622313   -1.572691
C     -0.398999    0.772694   -2.029733
N      0.849961    0.002143   -1.827930
H      0.586491    0.798892    3.802969
H      0.350169    1.903318    2.445970
H      1.746096    0.804020    2.473097
H     -1.194229   -0.063578    2.298022
H      0.201443   -1.160841    2.314737
H     -1.787063   -0.908307    0.073974
H     -0.361614   -1.967891    0.089857
H     -0.746557   -1.380333   -2.297971
H     -0.527120    1.566882   -1.306264
H     -0.613694    1.006300   -3.064071
H      1.356621    0.216321   -0.968231
H      1.403180   -0.276802   -2.629316
