17
5465_+.log
C     -2.355198    0.164041    1.434323
C     -0.921976    0.145294    1.006547
O      0.000085    0.011044    1.768107
C     -0.629872    0.302486   -0.487827
C      0.853512    0.314940   -0.680860
C      1.628688   -0.909698   -0.894504
N      1.384553    0.000162   -2.046195
H     -3.050248    0.309713    0.607988
H     -2.491326    0.959502    2.170737
H     -2.582868   -0.776878    1.941067
H     -1.109806   -0.522326   -1.027967
H     -1.085475    1.229217   -0.851097
H      1.385660    1.143967   -0.229042
H      2.662293   -0.954942   -0.577925
H      1.112450   -1.858253   -0.974032
H      2.162731    0.543623   -2.403106
H      0.729878   -0.298424   -2.760679
