17
5523_+.log
C     -1.719335    1.136885    0.405400
C     -0.255881    0.897173    0.668068
O     -0.000017    0.000711    1.728792
C      0.496360    0.362165   -0.574021
N      1.875532   -0.000067   -0.065356
C     -0.089319   -0.828134   -1.154233
C     -0.565288   -1.821293   -1.626934
H     -1.859266    1.843129   -0.415572
H     -2.185504    1.559407    1.296008
H     -2.228249    0.206535    0.140814
H      0.226185    1.841083    0.950715
H     -0.740943   -0.605777    1.835679
H      0.613995    1.146814   -1.326107
H      1.704461   -0.467432    0.841893
H      2.453410    0.825940    0.099215
H      2.363769   -0.631248   -0.701295
H     -0.995376   -2.698329   -2.059166
