21
5524_+.log
C     -2.355043   -0.358061    1.163112
C     -1.026399    0.256361    0.784936
O     -0.000856   -0.000314    1.730955
C     -0.489744   -0.356429   -0.498614
N      0.953799   -0.000124   -0.673202
C      1.664776   -0.958861   -1.553572
C      1.150335    1.400712   -1.122723
H     -3.098972   -0.190959    0.380716
H     -2.738108    0.099203    2.077537
H     -2.251899   -1.432332    1.329013
H     -1.152219    1.340187    0.658437
H     -0.274580    0.269676    2.612396
H     -0.536290   -1.444177   -0.427258
H     -1.040056   -0.029329   -1.381034
H      1.330527   -0.074563    0.281785
H      1.210228   -0.932538   -2.543228
H      1.581098   -1.958664   -1.132017
H      2.712714   -0.670931   -1.620582
H      0.730170    1.510347   -2.121541
H      2.216723    1.618622   -1.143239
H      0.653845    2.076035   -0.429798
