19
5531_+.log
C     -1.724064   -1.355710    0.752978
C     -1.015391   -0.022851    0.850456
O     -0.001374    0.001870    1.842246
C     -0.286866    0.360944   -0.433897
N      0.545517    1.576720   -0.137199
C      0.676841   -0.686221   -0.972983
O      1.480171   -0.001278   -1.911225
H     -2.284750   -1.545751    1.669930
H     -1.016956   -2.174736    0.613356
H     -2.440814   -1.358928   -0.071577
H     -1.757028    0.761615    1.061729
H     -0.366369   -0.217706    2.704459
H     -0.994698    0.642582   -1.214933
H      0.933717    1.452434    0.807261
H      0.009398    2.442398   -0.162889
H      1.299360    1.606261   -0.838484
H      0.098786   -1.487352   -1.440843
H      1.275799   -1.109272   -0.158715
H      2.135790   -0.590317   -2.295051
