19
5542_+.log
C     -0.518560   -1.864186    0.857183
C     -0.556861   -0.362608    1.080099
O     -0.010325    0.005409    2.315709
C      0.098977    0.449546   -0.043797
O      1.380669   -0.009859   -0.436844
C     -0.761268    0.540593   -1.300122
N      0.086924    1.206565   -2.340951
H     -0.975265   -2.166759   -0.088711
H     -1.067332   -2.356174    1.660072
H      0.503469   -2.260485    0.891645
H     -1.603336   -0.039157    1.126407
H      0.843850   -0.419655    2.442003
H      0.251919    1.457701    0.357264
H      1.429490   -0.967375   -0.333770
H     -1.017686   -0.445689   -1.689709
H     -1.670653    1.123174   -1.156691
H      1.031843    0.804355   -2.216625
H      0.153275    2.214358   -2.188086
H     -0.240502    1.048432   -3.293675
