18
5562_+.log
C     -1.401952   -0.026729    3.060122
C     -1.382649   -0.011590    1.558140
O      0.002393   -0.008224    1.152274
N      0.126716   -0.003781   -0.177394
C      1.311381    0.005964   -0.624541
C      1.456235    0.002643   -2.115810
N      0.075205    0.026952   -2.696932
H     -2.437164   -0.029709    3.405204
H     -0.908761    0.856018    3.468937
H     -0.909575   -0.918180    3.450636
H     -1.862580   -0.898759    1.135762
H     -1.861558    0.884598    1.153978
H      2.196946    0.011387    0.005726
H      1.974433   -0.891286   -2.467825
H      2.011832    0.871442   -2.472667
H     -0.549035   -0.011383   -1.848916
H     -0.112839   -0.768175   -3.304793
H     -0.116461    0.881466   -3.217211
