18
5574_+.log
C      3.121873    1.315197   -0.000000
C      1.621979    1.371745    0.000000
O      1.147163   -0.000789    0.000000
N     -0.176681   -0.056238    0.000000
C     -0.645578   -1.224433   -0.000000
N     -2.110560   -1.335735    0.000000
C     -2.870115   -0.047674   -0.000000
H      3.515018    2.333201    0.000000
H      3.498680    0.805478   -0.887743
H      3.498680    0.805478    0.887743
H      1.225971    1.863318    0.891171
H      1.225971    1.863318   -0.891171
H     -0.100221   -2.163555    0.000000
H     -2.395967   -1.886467    0.815441
H     -2.395967   -1.886467   -0.815441
H     -2.598358    0.514916    0.888332
H     -3.930567   -0.292574    0.000000
H     -2.598358    0.514916   -0.888332
