17
5580_+.log
C     -0.803192   -1.811039    0.000000
N     -1.236209   -0.400106   -0.000000
C     -0.592626    0.728110    0.737111
C      0.832099    0.483404    1.155011
O      1.485475    0.001049   -0.000000
C      0.832099    0.483404   -1.155011
C     -0.592626    0.728110   -0.737111
H     -1.206611   -2.288878   -0.891841
H     -1.206610   -2.288878    0.891841
H      0.281100   -1.863693   -0.000000
H     -2.247896   -0.315297   -0.000000
H     -1.265602    1.318224    1.345994
H      1.243801    1.441518    1.497376
H      0.952618   -0.250283    1.954459
H      0.952618   -0.250283   -1.954459
H      1.243801    1.441518   -1.497376
H     -1.265602    1.318224   -1.345994
