17
5581_+.log
C      1.570640   -1.174320   -1.674186
N      0.891082    0.000340   -1.111884
C     -0.353311    0.537271   -1.698221
C     -0.406022   -0.115949   -0.378203
C     -0.515943    0.659111    0.880718
C     -1.400875    0.198094    1.950648
O     -0.000113   -0.000665    2.013925
H      2.214773   -0.853996   -2.492236
H      0.820618   -1.869572   -2.047360
H      2.157693   -1.648948   -0.889236
H      1.521150    0.700165   -0.730057
H     -0.395106    1.618260   -1.756608
H     -0.693771    0.001180   -2.574762
H     -0.744187   -1.145643   -0.335837
H     -0.287586    1.723248    0.809196
H     -1.995053   -0.700694    1.809458
H     -1.801066    0.934159    2.640686
