17
5584_+.log
C      1.423001    0.030820   -2.207996
N      0.259424   -0.000114   -1.308118
C     -0.362211   -1.266632   -0.886776
C      0.380722   -0.455273    0.101509
C     -0.333675    0.287635    1.219731
C     -1.392340    1.289474    0.876964
O      0.001437    0.001518    2.331091
H      1.073472   -0.030278   -3.237823
H      2.062245   -0.821122   -1.982848
H      1.970733    0.957882   -2.045240
H     -0.394778    0.765643   -1.445797
H     -1.445396   -1.261430   -0.877377
H      0.106517   -2.151229   -1.299288
H      1.383625   -0.775268    0.360788
H     -1.922224    1.568266    1.785940
H     -2.118058    0.906318    0.151911
H     -0.934115    2.193629    0.459620
