17
5585_+.log
C      0.624727    1.090348   -2.518945
N      0.258363   -0.000030   -1.604937
C      1.203618   -0.499121   -0.578117
C      0.002659    0.236991   -0.157567
C     -1.168934   -0.439307    0.484064
C     -0.978585   -0.451429    1.989984
O      0.000381   -0.000774    2.509415
H     -0.282769    1.576832   -2.874087
H      1.186462    0.677663   -3.356088
H      1.241297    1.807785   -1.980207
H     -0.323075   -0.716055   -2.029036
H      1.230161   -1.577315   -0.477765
H      2.163023    0.001681   -0.584048
H      0.150019    1.278197    0.106690
H     -2.107279    0.078042    0.255029
H     -1.289183   -1.475921    0.145561
H     -1.803583   -0.902435    2.571071
