16
5586_+.log
C      0.601789   -1.093585   -2.506979
N      0.594287    0.000098   -1.527683
C     -0.420842    1.069910   -1.565592
C     -0.466240    0.097397   -0.457808
C     -0.037583    0.431523    0.903597
N     -0.401503   -0.376430    1.815540
O      0.000152   -0.000101    3.038324
H      1.112705   -1.952544   -2.074326
H      1.114558   -0.760342   -3.408809
H     -0.427044   -1.358802   -2.744926
H      1.517231    0.297453   -1.225675
H     -0.034740    2.065173   -1.380579
H     -1.124639    0.980307   -2.383243
H     -1.173868   -0.721058   -0.526974
H      0.531430    1.338478    1.113455
H     -0.352417   -0.673313    3.633990
