15
5588_+.log
C     -0.662177   -0.995492   -2.308061
N     -0.061180   -0.152639   -1.266426
C     -0.573233    1.177395   -0.920784
C     -0.678782    0.058845    0.049450
C      0.386548    0.006788    1.128320
O     -0.000547    0.000330    2.383070
O      1.536027    0.000909    0.793328
H     -0.236690   -0.711508   -3.269455
H     -1.739462   -0.838285   -2.320022
H     -0.436853   -2.038136   -2.088901
H      0.956151   -0.233971   -1.129976
H      0.191073    1.929040   -0.765337
H     -1.456903    1.476203   -1.470360
H     -1.637815   -0.427217    0.190120
H     -0.959221    0.010825    2.499499
