19
5598_+.log
C     -2.406894    0.344921   -0.000000
N     -1.040286    0.909565    0.000000
C     -0.094703    0.401937    1.073150
C      0.774725   -0.307967    0.000000
C      0.667094   -1.813345    0.000000
O      2.124555   -0.002284   -0.000000
C     -0.094703    0.401937   -1.073150
H     -2.930798    0.684472    0.892552
H     -2.340754   -0.741157   -0.000000
H     -2.930798    0.684472   -0.892553
H     -1.113031    1.924653    0.000000
H     -0.609930   -0.219267    1.803925
H      0.396371    1.237759    1.570890
H      1.164352   -2.215043    0.883919
H      1.164352   -2.215043   -0.883920
H     -0.370997   -2.150937    0.000000
H      2.283936    0.946753   -0.000000
H      0.396371    1.237759   -1.570890
H     -0.609930   -0.219267   -1.803925
