19
5599_+.log
C     -0.702205   -2.069832   -0.000000
N     -1.245705   -0.696355    0.000000
C     -0.725030    0.245223    1.070982
C     -0.146425    1.185817   -0.000000
C      1.358812    1.308667    0.000000
O      1.886654   -0.000859    0.000000
C     -0.725030    0.245223   -1.070982
H     -1.051778   -2.587617   -0.892640
H     -1.051778   -2.587617    0.892640
H      0.384019   -2.001058   -0.000000
H     -2.262457   -0.740068    0.000000
H      0.007913   -0.263906    1.693113
H     -1.540591    0.636098    1.675790
H     -0.598486    2.176841   -0.000000
H      1.676915    1.870156    0.886928
H      1.676915    1.870156   -0.886928
H      2.846932    0.033718    0.000000
H     -1.540591    0.636098   -1.675790
H      0.007913   -0.263906   -1.693113
