19
5632_+.log
C      0.604679    1.440008   -2.338928
N      0.405069   -0.000260   -2.009014
C     -0.446921   -0.234205   -0.823233
C     -0.294554   -1.513642   -0.075084
C      0.189224   -0.222606    0.522631
C     -0.518832    0.428183    1.688617
O     -0.004892   -0.007612    2.911973
H      1.245998    1.519687   -3.215016
H      1.065921    1.926094   -1.482286
H     -0.367126    1.884726   -2.542609
H      1.314303   -0.439066   -1.849116
H     -0.000046   -0.482680   -2.815185
H     -1.430409    0.197739   -0.966115
H      0.446191   -2.231003   -0.411096
H     -1.205786   -1.961951    0.302959
H      1.270062   -0.098714    0.549566
H     -1.601896    0.259212    1.605436
H     -0.356069    1.508745    1.655294
H     -0.340022   -0.884248    3.119104
