19
5635_+.log
C     -0.339834    0.466092   -2.934239
N      0.417384   -0.001157   -1.736151
C     -0.241758    0.304300   -0.449359
C     -1.328939   -0.602325    0.034170
C     -0.025195   -0.583798    0.749880
O     -0.000761   -0.002013    1.980298
C      1.298624    0.349666    2.425833
H      0.207913    0.189426   -3.833612
H     -0.444966    1.547168   -2.873531
H     -1.320495   -0.004072   -2.922677
H      1.352580    0.412587   -1.741658
H      0.559543   -1.011136   -1.803631
H     -0.337149    1.370999   -0.290519
H     -1.571759   -1.490239   -0.539365
H     -2.174040   -0.125792    0.514518
H      0.627817   -1.450353    0.615261
H      1.184533    0.768136    3.423092
H      1.752500    1.102246    1.770298
H      1.947485   -0.531124    2.476113
