17
5645_+.log
C     -0.234497    0.786591   -2.735163
N      0.530235   -0.000080   -1.727186
C     -0.265323   -0.399297   -0.524672
C      0.529420   -1.132775    0.574074
C     -0.018426   -0.095814    1.563748
O     -0.004960   -0.000823    2.741050
C     -0.628505    0.749222    0.436679
H      0.424453    1.041097   -3.563281
H     -0.607671    1.690638   -2.258879
H     -1.066039    0.180133   -3.088708
H      0.903687   -0.843069   -2.169367
H      1.343545    0.539631   -1.421425
H     -1.124473   -0.954992   -0.898850
H      0.264869   -2.173364    0.763752
H      1.618616   -1.062891    0.477073
H     -0.062870    1.674237    0.279477
H     -1.684510    1.001179    0.534977
