16
5650_+.log
C      2.285771    0.706695   -0.333296
N      1.173095   -0.000016   -1.045593
C     -0.170243    0.440015   -0.586186
C     -1.397397   -0.359212   -1.064471
N     -1.635151   -0.685582    0.337044
C     -0.529630   -0.080066    0.833890
O      0.001295    0.000569    1.898165
H      3.233303    0.291131   -0.670656
H      2.148499    0.556413    0.735894
H      2.228129    1.765545   -0.577428
H      1.267466   -1.006769   -0.889875
H      1.266102    0.145132   -2.053360
H     -0.234305    1.520301   -0.708487
H     -1.175250   -1.227441   -1.692850
H     -2.174235    0.243866   -1.535880
H     -2.377291   -1.197589    0.792245
