19
5656_+.log
C      1.619267   -1.365729   -0.652300
N      1.163230    0.000616   -0.283337
C     -0.308686    0.201880   -0.240844
C     -0.867073   -0.412178    1.012728
O      0.001965   -0.002521    2.046569
C     -0.813732    1.506641   -0.759962
C     -1.060708    0.237953   -1.522622
H      2.707705   -1.386922   -0.645063
H      1.241964   -1.607875   -1.643043
H      1.233647   -2.072174    0.078491
H      1.583377    0.688119   -0.908316
H      1.477421    0.218713    0.673088
H     -0.908553   -1.506282    0.936124
H     -1.888795   -0.045539    1.153917
H     -0.275647   -0.364022    2.892922
H     -1.630713    1.967484   -0.220331
H     -0.105119    2.213527   -1.177420
H     -0.518226    0.096028   -2.450314
H     -2.054814   -0.191537   -1.523622
