17
5657_+.log
C      0.574142   -0.434871   -2.553475
N      0.979962    0.000600   -1.192382
C     -0.164437    0.589249   -0.349335
C      0.340794    1.043004    1.018642
O     -0.000393   -0.000531    1.933045
C     -0.925031   -0.755387    1.322528
C     -1.130104   -0.477775    0.030209
H      1.441525   -0.835662   -3.074992
H      0.179502    0.425130   -3.091588
H     -0.189890   -1.202901   -2.459461
H      1.356952   -0.798830   -0.678106
H      1.731547    0.689245   -1.266392
H     -0.556384    1.407964   -0.954647
H      1.416103    1.224212    1.080788
H     -0.186494    1.949912    1.323473
H     -1.398433   -1.500893    1.947734
H     -1.864989   -0.936785   -0.611271
