16
5659_+.log
C      0.628990   -0.531254   -2.495136
N      0.998063    0.000734   -1.153961
C     -0.152181    0.629104   -0.374224
C      0.288812    1.102492    0.992677
O     -0.000851   -0.000508    1.860067
N     -0.945867   -0.775150    1.272494
C     -1.111185   -0.443243    0.053198
H      1.519958   -0.936894   -2.971077
H      0.222684    0.282828   -3.092612
H     -0.113026   -1.316297   -2.370089
H      1.390447   -0.753035   -0.583142
H      1.737959    0.698197   -1.259765
H     -0.561225    1.410969   -1.012834
H      1.345582    1.356739    1.093112
H     -0.318991    1.958020    1.301035
H     -1.851081   -0.948917   -0.551650
