19
5665_+.log
C      1.648706   -0.922889   -1.099290
N      0.482997   -0.000415   -1.226638
C     -0.663920   -0.673531   -1.891208
C      0.187512    0.627158    0.087099
C     -1.142154    1.177542    0.486358
C     -0.586098   -0.054031    1.152797
O     -0.000173   -0.001443    2.395277
H      2.486332   -0.375654   -0.671080
H      1.910935   -1.304153   -2.084703
H      1.365429   -1.738954   -0.437585
H      0.766130    0.763532   -1.844090
H     -0.999090   -1.502342   -1.271902
H     -0.324603   -1.052645   -2.853536
H     -1.468378    0.041758   -2.042121
H      1.056155    1.174414    0.433892
H     -1.112381    2.119600    1.019255
H     -2.009963    1.038225   -0.145452
H     -1.095431   -0.983604    0.902637
H     -0.679461   -0.018040    3.077718
