19
5670_+.log
C      2.332100    0.790273   -1.957312
N      1.564731   -0.000068   -0.961689
C      0.079547   -0.022211   -1.168579
C     -0.535156   -0.605273    0.073256
O      0.000602    0.000160    1.243985
C     -1.388416    0.200371    0.949820
C     -2.370120   -0.414298    1.887385
H      3.390657    0.743883   -1.707809
H      1.986286    1.821396   -1.923068
H      2.162396    0.372707   -2.947833
H      1.694971    0.374151   -0.012295
H      1.917775   -0.958519   -0.935827
H     -0.137051   -0.593986   -2.070946
H     -0.222782    1.015046   -1.317094
H     -0.618841   -1.690036    0.115115
H     -1.609213    1.213675    0.617488
H     -2.071873   -1.426095    2.164272
H     -3.358110   -0.449471    1.423255
H     -2.446553    0.185848    2.795819
