19
5671_+.log
C      2.496989   -0.712796   -1.378294
N      1.469052   -0.002566   -0.578896
C      0.094355   -0.601387   -0.624464
C     -0.731880    0.080985    0.418380
O     -0.001276    0.002627    1.609135
C     -1.540318    1.297699    0.078514
C     -2.212401   -0.019269    0.377233
H      3.450137   -0.197699   -1.273111
H      2.190080   -0.721041   -2.422536
H      2.582659   -1.732409   -1.008173
H      1.722466    0.018961    0.416399
H      1.408698    0.975286   -0.868997
H     -0.305976   -0.478511   -1.629741
H      0.213617   -1.663297   -0.401175
H     -0.545174    0.214811    2.372734
H     -1.602911    2.072498    0.832950
H     -1.558527    1.662618   -0.942209
H     -2.682132   -0.563779   -0.433149
H     -2.723896   -0.116736    1.327750
