19
5672_+.log
C      1.663678    0.943788   -2.734367
N      0.735324    0.000031   -2.053351
C      0.205463    0.492874   -0.739882
C     -0.721857   -0.518211   -0.095676
C     -1.086802   -0.037300    1.284539
C     -1.048080   -0.926609    2.439175
O     -0.000330    0.001193    2.189385
H      2.005214    0.499126   -3.667464
H      2.509199    1.132716   -2.076104
H      1.131852    1.871937   -2.933159
H      1.211418   -0.890925   -1.897129
H     -0.051005   -0.209992   -2.671533
H     -0.293092    1.442679   -0.941520
H      1.070902    0.680945   -0.102348
H     -0.216439   -1.485630   -0.005092
H     -1.628167   -0.661104   -0.694096
H     -1.741079    0.832999    1.323711
H     -1.666590   -0.703530    3.302852
H     -0.785760   -1.972063    2.300333
