17
5700_+.log
C      0.893537    0.498096   -3.515530
N      0.759697   -0.007756   -2.123852
C     -0.377598    0.609917   -1.340811
C     -0.433033    0.063111   -0.009900
C     -0.521614   -0.358315    1.113800
C     -0.643078   -0.835707    2.492582
O     -0.033769    0.011453    3.424627
H      1.732964   -0.000783   -3.996249
H      1.066288    1.572079   -3.481602
H     -0.027201    0.284599   -4.054926
H      1.623884    0.154729   -1.602542
H      0.625302   -1.021229   -2.125615
H     -1.289731    0.411835   -1.909209
H     -0.202902    1.688852   -1.336356
H     -0.272663   -1.867486    2.545381
H     -1.708286   -0.872117    2.740140
H      0.915179   -0.140367    3.429828
