18
5712_+.log
C      1.381486    0.880839   -2.073899
N      0.880745   -0.000095   -0.992332
C     -0.598481    0.079232   -0.722700
C     -1.349352   -1.000138   -1.475825
C     -0.786246    0.009254    0.765188
N      0.247640    0.045586    1.492471
O     -0.000473   -0.000070    2.819413
H      2.447328    0.705165   -2.209441
H      1.211580    1.916364   -1.786265
H      0.849299    0.657131   -2.996602
H      1.326681    0.210798   -0.079313
H      1.118210   -0.971980   -1.196148
H     -0.916558    1.066244   -1.074640
H     -1.047324   -1.997555   -1.145741
H     -1.199730   -0.914566   -2.553861
H     -2.418753   -0.898533   -1.286594
H     -1.794694   -0.052878    1.170490
H      0.866336    0.026682    3.241452
