18
5716_+.log
C      2.313765   -0.538514   -2.321434
N      0.976303    0.000792   -1.948808
C      0.583617   -0.285651   -0.531006
C     -0.773721    0.288420   -0.192713
C     -0.956815    0.189985    1.325624
N     -2.214511    0.341860    1.768472
O      0.001987    0.000798    2.041042
H      2.527442   -0.281386   -3.357321
H      2.298817   -1.619238   -2.196942
H      3.058747   -0.099166   -1.661290
H      0.967280    1.012059   -2.095773
H      0.270037   -0.379656   -2.581505
H      0.610583   -1.368597   -0.408119
H      1.348901    0.142263    0.115947
H     -0.830983    1.349515   -0.464082
H     -1.580519   -0.231958   -0.717127
H     -2.376923    0.321872    2.762484
H     -2.994208    0.503007    1.156817
