21
5717_+.log
C      0.485189   -0.249029   -3.400222
N      0.661400   -0.002677   -1.944611
C     -0.438259    0.801134   -1.307695
C     -0.202968    0.979835    0.174028
C     -0.379342   -0.288672    0.990649
O     -0.012467    0.004450    2.294153
C     -0.210848   -1.070824    3.187514
H      1.330669   -0.825695   -3.771118
H      0.432115    0.710052   -3.911582
H     -0.439896   -0.801726   -3.550501
H      1.547701    0.480050   -1.782840
H      0.738538   -0.893724   -1.449725
H     -1.368538    0.270021   -1.520479
H     -0.461200    1.755685   -1.834450
H      0.794101    1.394811    0.360516
H     -0.909566    1.730783    0.535063
H     -1.424815   -0.632867    0.932399
H      0.245097   -1.118849    0.598488
H      0.102032   -0.729414    4.172200
H      0.392784   -1.940920    2.900584
H     -1.266494   -1.363958    3.225575
