21
5721_+.log
C      2.080815    0.689935   -1.943634
N      1.080608    0.001297   -1.092736
C     -0.223207    0.715441   -0.940025
C     -0.978517    0.089101    0.225718
C     -1.612860   -1.248440   -0.110043
O     -0.000538    0.003481    1.241327
C     -0.493973   -0.182361    2.559009
H      2.986238    0.087257   -1.988756
H      2.302048    1.660273   -1.503801
H      1.668541    0.820222   -2.942564
H      0.911435   -0.939710   -1.449868
H      1.419886   -0.117656   -0.127057
H      0.022047    1.754790   -0.721313
H     -0.769064    0.659509   -1.881460
H     -1.762389    0.800315    0.517972
H     -0.869888   -1.998745   -0.397581
H     -2.332276   -1.137793   -0.924048
H     -2.154394   -1.646642    0.747913
H      0.364378   -0.130725    3.225809
H     -0.976369   -1.156250    2.673774
H     -1.201233    0.611021    2.819291
