17
5724_+.log
C     -0.035353    1.565164   -1.894202
N      0.052170    0.153165   -1.436886
C     -0.683993   -0.156561   -0.170673
C     -1.280797   -1.553393   -0.217575
C      0.390718   -0.034084    0.919240
O      0.000941   -0.005022    2.173517
O      1.548257    0.000376    0.603168
H      0.584996    1.684668   -2.780721
H      0.336441    2.209224   -1.099286
H     -1.071320    1.803914   -2.126836
H      1.040709   -0.053081   -1.182928
H     -0.241591   -0.478917   -2.180958
H     -1.460298    0.601602   -0.041203
H     -0.505866   -2.308430   -0.368215
H     -2.024698   -1.632412   -1.012874
H     -1.786809   -1.783759    0.720535
H     -0.958267   -0.014563    2.284341
