15
5740_+.log
C      2.061692   -0.946682   -0.819765
N      1.158919   -0.001030   -0.113548
C     -0.302334   -0.347874   -0.140846
C     -0.791170   -0.217753    1.316361
O     -0.001024    0.002233    2.185807
C     -1.047669    0.495378   -1.043955
C     -1.686271    1.215970   -1.757381
H      3.084361   -0.584779   -0.728148
H      1.773766   -0.996233   -1.868200
H      1.973938   -1.926310   -0.353785
H      1.271513    0.940451   -0.493635
H      1.380139    0.056138    0.901408
H     -0.391575   -1.403368   -0.426470
H     -1.871522   -0.342324    1.480900
H     -2.254922    1.851006   -2.401766
