17
5742_+.log
C      2.067048   -1.156384   -0.496730
N      1.138201    0.000238   -0.457466
C     -0.338559   -0.339741   -0.445802
C     -0.675513   -0.852691    0.957070
O     -0.001648    0.001209    1.846303
C     -1.069916    0.856831   -0.812131
C     -1.666860    1.848457   -1.121340
H      3.088845   -0.781093   -0.505079
H      1.875540   -1.736110   -1.397631
H      1.911074   -1.766874    0.389398
H      1.283915    0.537175    0.408591
H      1.313802    0.627919   -1.242889
H     -0.494381   -1.128247   -1.187289
H     -0.344628   -1.891701    1.071068
H     -1.761104   -0.822845    1.074788
H     -0.401188   -0.012778    2.719770
H     -2.208903    2.726057   -1.397566
