15
5744_+.log
C      2.335814    1.300772   -0.792305
N      1.774765    0.001299   -0.335020
C      0.405483   -0.309133   -0.821940
C     -0.508957   -0.219026    0.401490
O     -0.001466   -0.000767    1.478752
C     -1.897805   -0.408137    0.170857
C     -3.063913   -0.574525   -0.066527
H      3.306990    1.446902   -0.322724
H      1.656583    2.095008   -0.487984
H      2.440265    1.285248   -1.875316
H      1.642136    0.024428    0.702317
H      2.420490   -0.755027   -0.556044
H      0.366922   -1.314223   -1.245278
H      0.104691    0.400907   -1.592867
H     -4.106409   -0.720584   -0.253017
