15
5761_+.log
C     -1.940267   -0.971794   -0.501282
N     -1.396547    0.321784    0.008250
C      0.062740    0.579485   -0.165317
C      0.705720    0.233056    1.184816
O     -0.002112   -0.005256    2.120131
C      0.793009   -0.112660   -1.319993
O      1.975621    0.000990   -1.385023
H     -2.948315   -1.088192   -0.107200
H     -1.312821   -1.784349   -0.138680
H     -1.970806   -0.962332   -1.587572
H     -1.490989    0.310758    1.047259
H     -1.950479    1.096028   -0.355838
H      0.211832    1.654795   -0.319675
H      1.804209    0.230155    1.216275
H      0.201576   -0.681478   -2.058597
