19
5869_+.log
C      1.214472    0.165575    2.224021
O      0.000545    0.003557    1.509457
C      0.152444   -0.551701    0.276653
C     -0.963037   -0.385137   -0.706635
C     -2.227838    0.348537   -0.358406
C      0.315336    0.374793   -0.902864
N      1.214050   -0.001305   -2.022755
H      0.952774    0.575515    3.196842
H      1.886862    0.862211    1.709551
H      1.719467   -0.796587    2.361279
H      0.702508   -1.496419    0.244831
H     -1.096882   -1.246875   -1.357694
H     -2.032509    1.168113    0.332532
H     -2.928701   -0.332674    0.125826
H     -2.705769    0.747135   -1.254802
H      0.324601    1.442873   -0.725960
H      1.248372   -1.016739   -2.136453
H      2.172242    0.320700   -1.863024
H      0.892968    0.391810   -2.912260
