19
5885_+.log
C     -0.750196   -0.806015    2.527520
O      0.000059    0.000052    1.630512
C     -0.680504    0.331121    0.471401
C      0.225295    1.224655   -0.377144
N      0.702016   -0.000090   -1.129959
C      0.980253    0.085352   -2.573132
C     -0.529914   -0.732805   -0.639851
H     -0.119268   -0.976541    3.396777
H     -1.012293   -1.771508    2.080123
H     -1.664495   -0.289658    2.836411
H     -1.695984    0.689873    0.659895
H      1.021037    1.758171    0.138568
H     -0.309844    1.873199   -1.068876
H      1.515950   -0.376619   -0.643612
H      0.105030    0.493950   -3.075879
H      1.195644   -0.912005   -2.955389
H      1.838330    0.737459   -2.733662
H     -1.293967   -0.681109   -1.414801
H     -0.333494   -1.763132   -0.349904
