17
6000_+.log
C      1.074650    0.005685    2.750409
O     -0.000038    0.002126    1.793033
C      0.355354    0.001346    0.526484
O      1.477854    0.003662    0.098814
C     -0.861725   -0.003672   -0.381679
C     -0.385522    0.004473   -1.815598
N     -1.553278   -0.005201   -2.767502
H      0.594125    0.018476    3.724078
H      1.694538    0.890756    2.611512
H      1.683172   -0.889885    2.629944
H     -1.461720   -0.890049   -0.151961
H     -1.475153    0.871671   -0.145607
H      0.203547    0.892083   -2.042462
H      0.221487   -0.869929   -2.046161
H     -2.150689    0.813577   -2.632651
H     -2.136177   -0.834587   -2.633138
H     -1.237652   -0.002089   -3.739901
