18
6027_+.log
C      1.066178    0.583354    2.776163
O     -0.000505    0.000844    2.027693
N      0.266466    0.000635    0.714433
C     -0.635388   -0.494935   -0.023678
C     -0.371942   -0.530316   -1.502305
C     -1.487214    0.065758   -2.335583
N      0.923568    0.214155   -1.716717
H      0.746880    0.521951    3.813923
H      1.207826    1.627609    2.492003
H      1.987244    0.015201    2.635670
H     -1.568217   -0.900924    0.361684
H     -0.189067   -1.564077   -1.811531
H     -1.673817    1.107151   -2.060572
H     -2.407618   -0.493048   -2.161259
H     -1.263580    0.005254   -3.402540
H      1.324856    0.333769   -0.757122
H      0.754858    1.140810   -2.108665
H      1.572372   -0.281349   -2.325378
