17
6049_+.log
N      0.903415    0.000033   -1.890859
C      0.043469   -0.151128   -0.692121
C     -0.352921   -1.527495   -0.265070
C      0.568312   -0.703047    0.591100
O      0.000175   -0.000090    1.632103
C     -0.478845    1.251625    1.144616
C     -0.843172    1.023830   -0.331029
H      1.449121    0.865732   -1.853740
H      0.342819    0.017856   -2.748331
H      1.561800   -0.777992   -1.974556
H     -1.376517   -1.671240    0.058625
H      0.092315   -2.377697   -0.772959
H      1.595919   -1.027113    0.733768
H      0.307740    2.008996    1.240832
H     -1.327872    1.548268    1.758029
H     -0.630317    1.907422   -0.939191
H     -1.898094    0.778640   -0.464660
