17
6052_+.log
N     -0.211839   -2.133658    0.000000
C     -0.697866   -0.721858   -0.000000
C      0.151585    0.108118    0.976558
C     -0.365142    1.525419    0.774527
C     -0.365142    1.525419   -0.774527
C      0.151585    0.108118   -0.976558
O      1.232355    0.000202   -0.000000
H     -0.511931   -2.652358    0.827194
H      0.817389   -2.064530   -0.000000
H     -0.511931   -2.652358   -0.827194
H     -1.786990   -0.699096   -0.000000
H      0.412355   -0.236388    1.976990
H      0.326838    2.248003    1.203369
H     -1.350304    1.681231    1.215733
H     -1.350304    1.681231   -1.215733
H      0.326838    2.248003   -1.203369
H      0.412355   -0.236388   -1.976990
