17
6054_+.log
N      1.249525   -0.000174   -1.818044
C      0.706379   -0.418303   -0.487567
C     -0.839252   -0.484439   -0.426427
C     -0.826666    1.060081   -0.264712
C      0.456473    0.733409    0.520417
O     -0.000157    0.000365    1.630964
C     -0.972715   -0.890578    1.036767
H      2.234889    0.265064   -1.748940
H      0.734939    0.801584   -2.190261
H      1.180205   -0.758201   -2.501200
H      1.295748   -1.269918   -0.146976
H     -1.442863   -1.018212   -1.158518
H     -0.689070    1.627173   -1.188704
H     -1.636787    1.515212    0.302557
H      1.211165    1.459407    0.815589
H     -0.694300   -1.926583    1.238934
H     -1.966678   -0.692925    1.441146
