15
6056_+.log
N     -1.666649    1.139380    0.000000
C     -0.173372    1.020435    0.000000
C      0.494411    0.022671    0.974514
O      1.564956   -0.000472    0.000000
C      0.494411    0.022671   -0.974514
C     -0.250149   -1.280338   -0.666942
C     -0.250149   -1.280338    0.666942
H     -2.010685    1.632760   -0.826574
H     -2.010685    1.632760    0.826574
H     -2.047620    0.181372    0.000000
H      0.267160    2.015481    0.000000
H      0.791977    0.279831    1.987310
H      0.791977    0.279831   -1.987309
H     -0.606163   -2.014701   -1.374901
H     -0.606163   -2.014701    1.374901
