15
6057_+.log
N      1.619891    0.000029   -0.874479
C      0.486613    0.932082   -0.816555
C     -0.277509    1.001033    0.464815
O     -0.001488    0.000319    1.407954
C     -0.425566   -1.183575    0.891200
C     -0.960748   -1.081938   -0.330350
C     -0.906508    0.340029   -0.741453
H      2.348534    0.226683   -0.193771
H      2.037869   -0.030140   -1.805742
H      1.248108   -0.944199   -0.647910
H      0.648142    1.840439   -1.379332
H     -0.543437    1.954774    0.899724
H     -0.289643   -2.040156    1.536646
H     -1.423592   -1.879155   -0.891530
H     -1.680581    0.786673   -1.351284
