17
6060_+.log
N      1.257319    0.001342   -2.135411
C      0.692632    0.403084   -0.824076
C     -0.382852    1.429905   -0.804797
C     -0.696999   -0.005935   -0.481478
C     -0.983615   -0.392230    0.933250
C     -0.198287   -1.393282    1.646037
O      0.002904   -0.002985    1.867192
H      1.661627   -0.938066   -2.100012
H      1.992039    0.649249   -2.433295
H      0.538555    0.000080   -2.862700
H      1.445944    0.405894   -0.045777
H     -0.341071    2.145130    0.007288
H     -0.748477    1.828979   -1.744589
H     -1.266609   -0.547480   -1.232908
H     -2.009794   -0.213825    1.248376
H      0.615435   -1.904777    1.136333
H     -0.645560   -1.933764    2.474056
