17
6068_+.log
N      0.438119   -0.000505   -2.538361
C      0.408324   -0.589406   -1.177991
C      1.690057   -0.737914   -0.423066
C      0.693136    0.272232    0.020513
O     -0.000174   -0.000110    1.167003
C     -1.142258    0.747467    1.355846
C     -2.164405    0.279152    2.044727
H      0.723493   -0.689853   -3.240399
H      1.100552    0.776836   -2.591296
H     -0.481205    0.360960   -2.806971
H     -0.353061   -1.353590   -1.092274
H      1.793238   -1.641491    0.164570
H      2.612431   -0.372469   -0.860949
H      0.932257    1.323150   -0.154376
H     -1.102004    1.754965    0.947445
H     -2.160769   -0.721815    2.457581
H     -3.016672    0.916358    2.234738
