17
6069_+.log
N     -1.373541   -1.632015    0.027921
C     -0.856504   -0.460074   -0.700214
C     -1.397907    0.888716   -0.340957
C     -0.048008    0.465612    0.153911
O      0.000107   -0.000470    1.473125
C      1.242899    1.005971   -0.398799
O      2.211521    0.000043   -0.496126
H     -0.856760   -2.476711   -0.224773
H     -2.368376   -1.801432   -0.128095
H     -1.196567   -1.443997    1.030732
H     -0.551854   -0.687997   -1.712282
H     -1.469880    1.608566   -1.146658
H     -2.194979    0.948289    0.392414
H     -0.068540    0.736356    2.090358
H      1.576388    1.852966    0.213554
H      1.066186    1.390423   -1.407315
H      2.670266   -0.093063    0.342823
