17
6078_+.log
N      1.968534    0.000075    0.212577
C      0.711158    0.448202   -0.496054
C      0.137864   -0.629073   -1.358649
C     -1.161399   -0.777475   -1.130355
C     -1.668662    0.153164   -0.077219
C     -0.394636    0.723529    0.559617
O      0.000073    0.000421    1.711492
H      2.578555    0.780287    0.456770
H      2.499976   -0.664924   -0.347796
H      1.650959   -0.442711    1.091972
H      0.977805    1.344903   -1.060962
H      0.711110   -1.139330   -2.124252
H     -1.805713   -1.458445   -1.672594
H     -2.299203   -0.340232    0.667137
H     -2.274873    0.947327   -0.525882
H     -0.474983    1.788926    0.791106
H     -0.608710    0.152127    2.439594
