17
6097_+.log
N      0.627405    0.000342   -1.966161
C     -0.356162    0.003990   -0.828671
C     -0.642288   -1.390217   -0.293138
C     -0.875178   -1.089591    1.182054
O     -0.000901    0.000593    1.473730
C      0.235197    0.724423    0.363412
C      0.909139    1.866911    0.341978
H      0.829617    0.954224   -2.273819
H      0.281349   -0.527919   -2.770664
H      1.514242   -0.409090   -1.659623
H     -1.252162    0.500730   -1.208239
H      0.240317   -2.029427   -0.401810
H     -1.489237   -1.879831   -0.772640
H     -0.614913   -1.917430    1.838449
H     -1.908345   -0.787917    1.378544
H      1.047794    2.425628   -0.575261
H      1.311100    2.296491    1.249496
