13
6101_+.log
N      0.177514   -0.533392   -1.918912
C     -0.247905    0.394389   -0.812677
C     -1.566038    0.155622   -0.178284
C     -1.331167   -0.001397    1.122356
O     -0.000060    0.000113    1.476842
C      0.726261    0.135085    0.347685
O      1.898769    0.000309    0.248158
H      1.205968   -0.517832   -1.973443
H     -0.208155   -0.263073   -2.825722
H     -0.113727   -1.495263   -1.723216
H     -0.110442    1.410493   -1.195707
H     -2.537154    0.247155   -0.639935
H     -2.013873   -0.115072    1.951683
