17
6109_+.log
N      0.922947    0.000594   -2.159451
C     -0.022768    0.633513   -1.132266
C      0.689430    0.817749    0.204926
C      0.222988   -0.351880    1.101282
O     -0.000211    0.000601    2.432320
C     -0.987090   -0.866915    0.369276
C     -1.135185   -0.325089   -0.835450
H      1.714717    0.612121   -2.369010
H      0.434886   -0.196663   -3.035501
H      1.286254   -0.886904   -1.804973
H     -0.338811    1.565118   -1.606168
H      0.345204    1.752140    0.652341
H      1.776348    0.898763    0.122120
H      0.982660   -1.140861    1.155754
H     -0.751797    0.599520    2.496660
H     -1.650376   -1.599794    0.813815
H     -1.936746   -0.530082   -1.535701
