16
6118_+.log
N      0.823140   -0.001249   -1.993472
C     -0.402687   -0.065537   -1.087527
C     -0.545864    1.217066   -0.297496
C      0.341874    1.122598    0.922348
O      0.001811   -0.000624    1.723994
N     -0.163873   -1.177236    1.106054
C     -0.280538   -1.235796   -0.163957
H      0.982420   -0.895993   -2.462895
H      1.660827    0.206793   -1.443906
H      0.721910    0.721412   -2.710987
H     -1.240624   -0.221928   -1.771121
H     -0.312267    2.105587   -0.890637
H     -1.590137    1.306994    0.010798
H      1.406016    1.032968    0.652363
H      0.237507    1.984630    1.578835
H     -0.430281   -2.240522   -0.549278
