15
6128_+.log
N     -0.364419   -1.593679   -0.000000
C     -0.148107   -0.091102   -0.000000
C      0.965122    0.223873    1.016049
O      1.948166   -0.000304    0.000000
C      0.965122    0.223873   -1.016049
C     -1.420201    0.574172    0.000000
C     -2.477755    1.138705    0.000000
H     -0.890681   -1.886692   -0.826740
H     -0.890681   -1.886692    0.826740
H      0.546947   -2.064286    0.000000
H      1.079795   -0.431517    1.883486
H      0.923814    1.268498    1.336452
H      0.923814    1.268498   -1.336452
H      1.079795   -0.431517   -1.883486
H     -3.415302    1.651268    0.000000
