17
6129_+.log
N      2.140628    0.004448    0.581204
C      0.934635   -0.450178   -0.138733
C     -0.291459   -0.438666    0.721585
O      0.000331   -0.003825    2.010378
C     -0.159771    0.553817   -0.390715
C     -0.937612    0.458017   -1.650064
C     -2.119053   -0.129139   -1.762115
H      2.777469   -0.771627    0.771453
H      1.809407    0.371310    1.491377
H      2.657064    0.729928    0.081643
H      1.124023   -1.243984   -0.847955
H     -0.977835   -1.274346    0.641800
H     -0.750363    0.464217    2.390932
H      0.066865    1.565017   -0.053258
H     -0.479333    0.925410   -2.517687
H     -2.622005   -0.592500   -0.919986
H     -2.638128   -0.156696   -2.712100
