15
6130_+.log
N      2.067133   -0.000025    0.531168
C      0.827424   -0.498107   -0.092691
C     -0.345754   -0.480933    0.828088
O      0.000055   -0.000081    2.080066
C     -0.282681    0.498739   -0.323649
C     -1.110344    0.330483   -1.476352
C     -1.812007    0.174050   -2.435621
H      2.720653   -0.763719    0.718377
H      1.798729    0.411053    1.441256
H      2.545895    0.700005   -0.038724
H      0.985869   -1.297459   -0.802682
H     -1.049494   -1.305517    0.786631
H     -0.760553    0.396907    2.518441
H     -0.075751    1.523274   -0.019816
H     -2.440452    0.044726   -3.287886
