17
6131_+.log
N      1.801594    0.000651   -1.300497
C      0.872558   -0.580947   -0.281708
C      1.288130   -0.511950    1.182531
O      0.000166    0.000311    1.517551
C     -0.306076    0.310402    0.145155
C     -1.672450   -0.053228   -0.289548
C     -2.491884    0.810022   -0.873876
H      2.626748   -0.586889   -1.444626
H      2.124820    0.927136   -1.009479
H      1.332045    0.104555   -2.204544
H      0.581885   -1.569396   -0.634654
H      2.090326    0.212390    1.386650
H      1.513059   -1.454534    1.682623
H     -0.108283    1.374913   -0.063777
H     -1.983861   -1.075947   -0.092397
H     -2.206102    1.843643   -1.044031
H     -3.485882    0.520005   -1.191762
