17
6141_+.log
N     -1.429987    0.653869   -1.385146
C     -0.511336    0.086913   -0.363702
C     -0.775129    0.702808    0.992109
O     -0.000234    0.001105    1.924419
C     -0.128464   -1.355564   -0.510956
C      0.876157   -0.282462   -0.818062
O      1.978408   -0.001387   -0.066466
H     -1.204901    0.291366   -2.313970
H     -1.355135    1.674801   -1.430738
H     -2.408517    0.415393   -1.192487
H     -1.847875    0.627109    1.229724
H     -0.505352    1.769360    0.966139
H     -0.113478    0.381879    2.800523
H     -0.034991   -1.901990    0.419826
H     -0.523366   -1.934211   -1.339375
H      1.094998   -0.135523   -1.873162
H      1.781543   -0.158339    0.866808
