17
6144_+.log
N      1.691737   -0.003196   -1.626283
C      0.634736    0.356321   -0.612665
C      0.905412   -0.401459    0.682094
O     -0.000244    0.002522    1.667605
C     -1.298949    0.047924    1.266582
C     -1.704006    0.028441    0.002264
C     -0.742088    0.020086   -1.147146
H      2.628330    0.260275   -1.310626
H      1.516602    0.467713   -2.517077
H      1.693480   -1.010418   -1.807579
H      0.738707    1.429538   -0.438082
H      0.807518   -1.482877    0.502897
H      1.904533   -0.196861    1.075492
H     -1.970305    0.117837    2.112350
H     -2.763871    0.059907   -0.208881
H     -1.049885    0.750050   -1.903444
H     -0.733109   -0.962724   -1.640453
