16
6155_+.log
N      1.691677   -0.000059   -1.672082
C      0.675581    0.374466   -0.621808
C      0.896751   -0.438266    0.640607
O      0.000175    0.000312    1.627439
N     -1.336811   -0.010475    1.293114
C     -1.652345    0.013426    0.066399
C     -0.728244    0.110807   -1.115662
H      2.644505    0.207369   -1.361198
H      1.529875    0.510692   -2.543966
H      1.646280   -0.999724   -1.887594
H      0.838618    1.433340   -0.411497
H      0.741633   -1.508920    0.436650
H      1.891346   -0.293885    1.069169
H     -2.721482    0.004516   -0.120466
H     -1.086520    0.902697   -1.780156
H     -0.780278   -0.828953   -1.681451
