19
6170_+.log
N      2.184532    0.000039    0.259339
C      1.175117   -0.374507   -0.790992
C     -0.007732    0.562498   -0.711922
C     -1.253029   -0.020540   -1.424800
C     -1.753197   -0.553251   -0.065458
C     -0.795254    0.436304    0.608601
O      0.000070    0.002226    1.702017
H      2.952300   -0.668250    0.318056
H      1.654795    0.022278    1.157135
H      2.578797    0.924938    0.087117
H      0.890566   -1.405848   -0.578878
H      1.663840   -0.338443   -1.764990
H      0.293180    1.573891   -0.998942
H     -1.072213   -0.749955   -2.214250
H     -1.884777    0.771386   -1.824260
H     -2.813869   -0.460715    0.161078
H     -1.444392   -1.585225    0.111832
H     -1.289100    1.381216    0.849479
H     -0.502827    0.010701    2.521780
