19
6173_+.log
N      2.463249    0.000729    0.223385
C      1.464451   -0.130983   -0.889531
C      0.168533    0.475461   -0.383986
C     -1.077883    0.073465   -1.155664
C     -2.129583    0.076772   -0.048666
C     -1.355120   -0.462707    1.138293
O      0.000815   -0.007767    0.941687
H      3.276830   -0.602410    0.104769
H      1.945360   -0.259069    1.079208
H      2.788795    0.962488    0.333495
H      1.346878   -1.199373   -1.072573
H      1.857087    0.356613   -1.781155
H      0.264702    1.570979   -0.351790
H     -0.963284   -0.931093   -1.574018
H     -1.305637    0.758749   -1.971727
H     -2.999113   -0.533099   -0.291259
H     -2.473613    1.094678    0.147234
H     -1.698589   -0.082129    2.099948
H     -1.355883   -1.555985    1.167117
