17
6178_+.log
N      2.365733   -0.000452   -0.036192
C      1.197004    0.131841   -0.966356
C      0.045774    0.730376   -0.171992
C     -1.304939    0.522725   -0.867129
C     -1.872856   -0.611337   -0.061481
C     -1.110046   -0.824100    0.995126
O     -0.000067    0.000588    1.064779
H      3.079839   -0.641327   -0.382363
H      1.974408   -0.357294    0.849953
H      2.809327    0.899723    0.154684
H      0.943996   -0.876713   -1.296856
H      1.487683    0.739506   -1.822545
H      0.247734    1.776668    0.071514
H     -1.189896    0.285555   -1.929140
H     -1.932112    1.415989   -0.805298
H     -2.793497   -1.127165   -0.285733
H     -1.214632   -1.508779    1.823567
