14
6179_+.log
N      2.402004   -0.000174   -0.442388
C      1.238462   -0.866260   -0.867682
C     -0.012528   -0.271604   -0.352715
C     -1.205225    0.061133   -0.890225
C     -1.925392    0.558218    0.230071
N     -1.216082    0.534553    1.318770
O      0.000090    0.000552    0.961269
H      3.301331   -0.420554   -0.686927
H      2.372251    0.136968    0.573021
H      2.349403    0.925374   -0.875041
H      1.427038   -1.856385   -0.446290
H      1.240712   -0.930641   -1.954116
H     -1.537783   -0.032527   -1.911027
H     -2.936680    0.936970    0.268653
