15
6183_+.log
N      1.079951    0.000272   -2.332212
C      0.047710    0.824563   -1.570081
C     -0.150296    0.267174   -0.218846
C      0.376049    0.757400    0.938156
O     -0.000307    0.000139    1.970695
C     -0.778262   -0.996317    1.492948
C     -0.911370   -0.889482    0.152246
H      1.230970    0.347177   -3.282349
H      0.781398   -0.975528   -2.389504
H      1.972873    0.011146   -1.834654
H     -0.856915    0.799926   -2.179222
H      0.431256    1.844321   -1.549192
H      0.987198    1.617368    1.165538
H     -1.167569   -1.686888    2.222592
H     -1.503386   -1.533261   -0.480766
