17
6208_+.log
N      0.945519    0.001609   -2.260896
C      0.541154    0.925261   -1.150114
C     -0.635832    0.323785   -0.377432
C     -0.708950    0.922277    1.033021
O     -0.002742    0.000173    1.881118
C      0.002099   -1.176962    1.242505
C     -0.387314   -1.129008   -0.035624
H      1.818650    0.285052   -2.707260
H      0.225491   -0.062402   -2.983106
H      1.067133   -0.934308   -1.850068
H      0.318474    1.897402   -1.591008
H      1.415088    1.013893   -0.502938
H     -1.567102    0.495431   -0.923585
H     -1.743406    0.971858    1.380284
H     -0.246109    1.903890    1.138638
H      0.313553   -2.026159    1.836732
H     -0.565740   -1.989016   -0.665739
