16
6217_+.log
N      0.958983    0.000417   -2.302300
C      0.622217    0.871091   -1.121321
C     -0.614200    0.362470   -0.383773
C     -0.685495    0.960409    1.015681
O     -0.000604    0.000369    1.838435
N     -0.067758   -1.214073    1.232462
C     -0.452806   -1.082636    0.026418
H      1.804943    0.322356   -2.777319
H      0.201965   -0.014507   -2.989669
H      1.120814   -0.962561   -1.992796
H      0.488951    1.884425   -1.501206
H      1.495533    0.844207   -0.467508
H     -1.520260    0.557256   -0.961736
H     -1.721253    1.035678    1.357389
H     -0.188176    1.923016    1.136896
H     -0.607409   -1.971089   -0.575100
