16
6225_+.log
N      1.890579   -0.000197   -1.612280
C      0.396228    0.006284   -1.775395
C     -0.186065    0.004367   -0.401576
N      0.627373   -0.006244    0.572740
O      0.000501    0.000858    1.759666
C     -1.438439   -0.033289    1.534366
C     -1.618354    0.031175    0.012186
H      2.330988    0.830695   -2.004971
H      2.327339   -0.820738   -2.029922
H      2.045117   -0.014570   -0.574846
H      0.098443   -0.872588   -2.350395
H      0.104389    0.890981   -2.344589
H     -1.813736   -0.959502    1.969237
H     -1.868813    0.818068    2.059502
H     -2.179208   -0.816168   -0.389202
H     -2.116129    0.943894   -0.326746
