17
6226_+.log
N      2.279832    0.000225   -1.395220
C      1.946419    0.143726    0.067591
C      0.612960   -0.483439    0.355010
O     -0.000177   -0.000299    1.515312
C     -0.630425    0.307231    0.270734
C     -1.927015   -0.323629   -0.008824
C     -2.915697    0.321231   -0.612037
H      3.180113    0.428257   -1.621955
H      1.561658    0.442998   -1.973672
H      2.327438   -0.984091   -1.668954
H      2.756069   -0.330775    0.625046
H      1.931231    1.208805    0.298187
H      0.557753   -1.565023    0.217070
H     -0.542861    1.357606   -0.010914
H     -2.044981   -1.352568    0.319493
H     -2.818493    1.358056   -0.918511
H     -3.864000   -0.161148   -0.812739
