19
6235_+.log
N      1.774133    0.001168   -1.451238
C      1.532597    0.097780    0.028749
C      0.052047    0.034686    0.381497
O     -0.000295   -0.000297    1.781568
C     -0.945108    1.035795   -0.237410
C     -1.975414   -0.109751   -0.304243
C     -0.816242   -1.116795   -0.164213
H      2.770696    0.025324   -1.674203
H      1.319150    0.770988   -1.946495
H      1.386646   -0.870791   -1.818814
H      1.980177    1.035990    0.362002
H      2.059820   -0.734821    0.496015
H     -0.038803    0.892857    2.138951
H     -0.661734    1.375697   -1.240631
H     -1.177392    1.920299    0.358834
H     -2.588493   -0.174104   -1.200740
H     -2.623057   -0.122653    0.570517
H     -0.933533   -1.961512    0.512964
H     -0.499008   -1.495269   -1.142851
