17
6236_+.log
N      1.953627   -0.000329   -1.744032
C      1.441400   -0.460636   -0.407667
C      0.320726    0.454118    0.087581
O     -0.000080    0.000196    1.373449
C     -1.398522   -0.281731    1.471377
C     -1.925999   -0.046811    0.101152
C     -0.956775    0.378489   -0.695784
H      2.732553   -0.576710   -2.068069
H      2.280504    0.968070   -1.697618
H      1.216388   -0.045823   -2.451264
H      1.084670   -1.483076   -0.530157
H      2.282704   -0.444783    0.285323
H      0.711342    1.488023    0.135241
H     -1.537863   -1.311721    1.816626
H     -1.856544    0.386427    2.209785
H     -2.965220   -0.182082   -0.167942
H     -1.076925    0.692977   -1.725978
