17
6240_+.log
N     -1.312720    1.486084   -0.000000
C      0.193246    1.402720    0.000000
C      0.639340   -0.056221    0.000000
O      2.011880    0.000229   -0.000000
C     -0.150317   -0.892704    1.025319
O     -1.142035   -1.154956    0.000000
C     -0.150317   -0.892704   -1.025319
H     -1.670847    1.971977   -0.820637
H     -1.670847    1.971977    0.820637
H     -1.679545    0.496586   -0.000000
H      0.572890    1.910247   -0.885888
H      0.572889    1.910247    0.885888
H      2.395215   -0.883222    0.000000
H      0.365179   -1.812878    1.315857
H     -0.575361   -0.419381    1.914996
H     -0.575361   -0.419381   -1.914995
H      0.365179   -1.812878   -1.315857
