17
6254_+.log
N      1.770708    0.000140   -1.902372
C      1.177469    0.470077   -0.611552
C     -0.271107    0.116125   -0.484903
C     -1.011374   -0.422804   -1.443898
C     -0.803670    0.454719    0.868052
C     -1.291456   -0.572569    1.783782
O     -0.000627    0.000699    1.943957
H      2.770249    0.206150   -1.949812
H      1.316367    0.447792   -2.701556
H      1.646135   -1.010444   -2.004324
H      1.338598    1.550180   -0.558990
H      1.745669    0.007084    0.198193
H     -0.653518   -0.647443   -2.444711
H     -2.052552   -0.662639   -1.265913
H     -1.176874    1.472906    0.979829
H     -2.013713   -0.298822    2.546499
H     -1.302520   -1.609615    1.461906
