15
6255_+.log
N      1.090072   -0.000370   -2.946257
C      0.272753    1.042083   -2.202297
C     -0.132077    0.531223   -0.920845
C     -0.468681    0.150204    0.169930
C     -0.898725   -0.259367    1.477416
C     -0.216639   -1.346636    2.196619
O     -0.002973    0.001619    2.541218
H      1.392758    0.335088   -3.864033
H      0.540750   -0.853328   -3.075579
H      1.919002   -0.250959   -2.402017
H      0.907248    1.927455   -2.115009
H     -0.578709    1.284826   -2.842161
H     -1.948772   -0.071037    1.689755
H     -0.798452   -1.931091    2.903575
H      0.623952   -1.850619    1.728229
