21
6256_+.log
N      0.657004   -0.000547   -3.693657
C     -0.278961    0.155758   -2.519453
C      0.446777   -0.096370   -1.218702
C     -0.483721    0.075159   -0.023218
C      0.230381   -0.147006    1.300931
C     -0.686898    0.068966    2.495998
O      0.000775   -0.000724    3.717504
H      0.187242    0.171203   -4.584969
H      1.049286   -0.944242   -3.722140
H      1.441004    0.651782   -3.620971
H     -1.095107   -0.549708   -2.682103
H     -0.678196    1.169328   -2.579198
H      1.289416    0.599262   -1.123398
H      0.863645   -1.110783   -1.215112
H     -1.325407   -0.621136   -0.114332
H     -0.912195    1.083956   -0.040863
H      1.076424    0.541791    1.393635
H      0.643425   -1.162168    1.336012
H     -1.526013   -0.639881    2.462127
H     -1.116969    1.073976    2.448629
H      0.162647   -0.919781    3.943694
