19
6259_+.log
N      2.368470    0.004236   -1.318039
C      1.041595   -0.011520   -2.070234
C     -0.006757    0.523439   -1.168928
C     -0.815653   -0.272327   -0.475876
C     -1.757630    0.186701    0.575071
C     -1.346538   -0.375218    1.929387
O      0.001286   -0.009720    2.166074
H      3.131445   -0.420523   -1.849404
H      2.254840   -0.494757   -0.431581
H      2.635567    0.962567   -1.084574
H      0.863929   -1.051137   -2.345127
H      1.201893    0.578380   -2.973612
H     -0.050068    1.601577   -1.036077
H     -0.761646   -1.350008   -0.637909
H     -2.771774   -0.162486    0.355015
H     -1.777100    1.277916    0.618980
H     -2.011131    0.032208    2.697986
H     -1.458929   -1.467632    1.931007
H      0.198632   -0.152577    3.095186
