19
6260_+.log
N      1.088146   -0.011692   -2.681928
C     -0.010883    0.516767   -1.812577
C      0.039946   -0.044868   -0.423727
C      0.919598   -0.967321   -0.051022
C     -1.003416    0.560588    0.473559
C     -1.165707   -0.103088    1.833485
O     -0.009784   -0.006928    2.631695
H      1.061754    0.397734   -3.616904
H      1.015334   -1.027733   -2.772232
H      1.999072    0.190182   -2.262016
H      0.092217    1.604912   -1.804378
H     -0.951601    0.275736   -2.314279
H      0.954493   -1.320565    0.970731
H      1.662084   -1.406093   -0.711768
H     -0.775945    1.626164    0.611421
H     -1.973679    0.530932   -0.040187
H     -2.037991    0.329447    2.333228
H     -1.373785   -1.168469    1.697172
H     -0.060238    0.774811    3.185809
