17
6261_+.log
N      1.006490    0.015997   -3.308037
C     -0.243239   -0.506539   -2.618867
C     -0.259820   -0.065819   -1.250078
C     -0.282532    0.312267   -0.106961
C     -0.310612    0.720540    1.279945
C     -0.125291   -0.457520    2.252900
O     -0.006394   -0.004466    3.568432
H      1.058016   -0.277225   -4.286475
H      1.840598   -0.319949   -2.820973
H      1.024792    1.037805   -3.270898
H     -1.092127   -0.130497   -3.194898
H     -0.213993   -1.594686   -2.712822
H      0.488519    1.447119    1.459560
H     -1.256353    1.234698    1.481496
H     -0.945824   -1.173330    2.128410
H      0.804952   -0.976405    2.011030
H     -0.876944    0.141563    3.947178
