19
6262_+.log
N      1.257232   -0.000581   -3.343337
C      0.852607   -0.510905   -1.980466
C     -0.231253    0.363045   -1.380567
C     -0.682281   -0.185469   -0.061248
C     -0.528323    0.449821    1.093957
C     -1.009852   -0.052964    2.416496
O     -0.000244    0.001344    3.395581
H      1.987353   -0.577107   -3.766534
H      1.610494    0.956982   -3.282420
H      0.457198    0.010513   -3.980017
H      1.755438   -0.516042   -1.369219
H      0.520368   -1.539963   -2.124041
H     -1.083274    0.411879   -2.072241
H      0.142125    1.383515   -1.245700
H     -1.186366   -1.150287   -0.083722
H     -0.028661    1.417333    1.123838
H     -1.437472   -1.058408    2.314217
H     -1.808733    0.602745    2.776380
H      0.642087   -0.691838    3.223018
