19
6263_+.log
N      1.143614   -0.002674   -2.927994
C      0.695297   -0.483182   -1.566851
C     -0.212055    0.538762   -0.910337
C     -0.609828    0.087611    0.473358
C     -1.730069   -0.588215    0.688461
C      0.335449    0.485499    1.577330
O      0.003082   -0.006099    2.836619
H      1.742017   -0.686118   -3.396439
H      1.666198    0.872823   -2.852849
H      0.338138    0.175198   -3.532283
H      0.183300   -1.432241   -1.726298
H      1.603920   -0.666220   -0.992510
H      0.304233    1.505967   -0.849081
H     -1.108260    0.682692   -1.521729
H     -2.415809   -0.833963   -0.115107
H     -2.009844   -0.889712    1.690319
H      1.369371    0.219428    1.296819
H      0.323742    1.579060    1.661580
H      0.192972   -0.947367    2.880296
