16
6269_+.log
N      0.750372    0.000623   -2.785656
C      1.683474    0.018628   -1.610648
C      0.964263    0.011873   -0.315488
C     -0.343080   -0.002950   -0.096435
C     -0.803291   -0.006859    1.338047
N     -2.139008   -0.019989    1.512293
O     -0.000026    0.002082    2.241842
H      1.260653    0.007104   -3.670982
H      0.132747    0.815890   -2.767375
H      0.159951   -0.834476   -2.763562
H      2.307990    0.909741   -1.716452
H      2.334331   -0.854121   -1.710401
H      1.603863    0.020123    0.566139
H     -1.096577   -0.012841   -0.882783
H     -2.496041   -0.024106    2.453994
H     -2.793388   -0.027202    0.751737
