16
6270_+.log
N      1.102847   -0.002301   -2.479734
C      0.944044   -0.019246   -0.990586
C     -0.498245    0.005605   -0.582060
C     -1.523638    0.022134   -1.435490
C     -0.707561    0.008569    0.856049
N      0.319043   -0.007487    1.610067
O      0.000962   -0.003760    2.923389
H      2.089354   -0.010459   -2.743755
H      0.671540    0.833125   -2.882340
H      0.652816   -0.816506   -2.904519
H      1.446291   -0.914413   -0.621041
H      1.482063    0.844036   -0.596774
H     -2.541861    0.039095   -1.067480
H     -1.428695    0.019280   -2.515896
H     -1.721168    0.023127    1.254155
H      0.847889   -0.016829    3.383777
