16
6271_+.log
N      2.114062    0.001110    0.228233
C      1.252704   -0.591959   -0.842765
C     -0.116568    0.025960   -0.772475
C     -0.688009    0.596826   -1.826995
C     -0.737781   -0.002500    0.588092
N     -2.059752   -0.016274    0.695248
O      0.000053   -0.003769    1.585428
H      2.929966   -0.570707    0.436839
H      1.416317    0.050482    1.067549
H      2.426249    0.941203   -0.009707
H      1.712086   -0.447181   -1.819139
H      1.203476   -1.663488   -0.634939
H     -1.668426    1.056028   -1.775811
H     -0.186553    0.640262   -2.787638
H     -2.661692   -0.135264   -0.100353
H     -2.469974   -0.004359    1.616771
