14
6273_+.log
N      1.039460    0.002019   -3.189353
C     -0.351579   -0.254279   -2.625590
C     -0.363030    0.013161   -1.215073
C     -0.369329    0.207650   -0.025491
C     -0.407555    0.481225    1.360285
N      0.098058   -0.384376    2.155982
O     -0.002554   -0.000484    3.438876
H      1.087049   -0.184271   -4.194123
H      1.723557   -0.591452   -2.713968
H      1.312370    0.973494   -3.022992
H     -0.588722   -1.295644   -2.856996
H     -1.035056    0.391955   -3.181045
H     -0.860016    1.405503    1.717795
H      0.395617   -0.721346    3.941977
