18
6276_+.log
N      1.272589    0.001015   -1.552048
C      0.824548    1.262277   -0.856055
C     -0.682726    1.323255   -0.687191
C     -1.332386    0.056382   -0.105341
C     -0.421024   -0.587613    0.917605
N      0.053979   -1.841956    0.557032
O     -0.001057    0.001908    1.878464
H      2.285204   -0.005043   -1.681975
H      0.840842   -0.096574   -2.472212
H      1.019388   -0.826917   -0.976095
H      1.328565    1.259182    0.110487
H      1.193423    2.102387   -1.444214
H     -1.165582    1.570575   -1.636426
H     -0.864177    2.167647   -0.019567
H     -2.265901    0.332036    0.388484
H     -1.591997   -0.649196   -0.899441
H      0.573482   -2.307842    1.291852
H     -0.584503   -2.454247    0.067291
