19
6300_+.log
N      1.946020   -0.001396   -2.584479
C      0.959895   -0.411651   -1.521162
C      0.053394    0.742632   -1.156471
C     -0.842669    0.363440    0.007878
O     -0.000836    0.003979    1.072104
C     -0.605984   -0.336968    2.244321
C     -1.906284   -0.381980    2.492097
H      2.569355   -0.770401   -2.838801
H      2.525888    0.775499   -2.259278
H      1.468897    0.308585   -3.433943
H      0.408293   -1.263633   -1.921135
H      1.543472   -0.739956   -0.661636
H      0.652765    1.611801   -0.863703
H     -0.573067    1.033310   -2.005601
H     -1.503740   -0.472218   -0.259222
H     -1.474920    1.215761    0.279944
H      0.142689   -0.578275    2.988950
H     -2.671814   -0.142560    1.766513
H     -2.233447   -0.671340    3.480762
