15
6311_+.log
N     -2.084338   -0.002427   -1.854167
C     -1.695397    0.028641   -0.414497
C     -0.204765   -0.002104   -0.239974
C      0.686318   -0.029037   -1.222460
O      0.000114    0.003021    1.107076
C      1.247797    0.005733    1.685256
O      2.276868   -0.001054    1.104465
H     -3.100372    0.003532   -1.962523
H     -1.717547   -0.842196   -2.310266
H     -1.704914    0.807523   -2.351578
H     -2.158500   -0.832903    0.070835
H     -2.119803    0.935019    0.022334
H      0.376355   -0.027695   -2.261016
H      1.747802   -0.050878   -1.037244
H      1.102646    0.015254    2.771604
