18
6315_+.log
N      1.103630    0.000476   -3.005777
C      0.302044   -0.314262   -1.768588
C     -0.198636    0.956186   -1.118085
C     -0.928906    0.642634    0.173226
O      0.000453    0.000150    1.018806
N     -0.657401   -0.408276    2.174382
C      0.142066   -0.884489    3.026601
H      1.455858   -0.847015   -3.455481
H      1.907580    0.589161   -2.776176
H      0.540792    0.507761   -3.692252
H      0.959786   -0.869812   -1.100811
H     -0.513094   -0.966918   -2.084493
H     -0.883325    1.491547   -1.783526
H      0.643316    1.620971   -0.894315
H     -1.292374    1.568151    0.629145
H     -1.791400   -0.009778   -0.003233
H     -0.298287   -1.233416    3.952832
H      1.217093   -0.949035    2.866658
