14
6319_+.log
N      1.494830    0.000330   -0.803570
C      0.071985   -0.511941   -0.769302
C     -0.408277   -0.375938    0.656026
N      0.464270   -0.083809    1.521287
O      0.000641   -0.000548    2.783178
C     -0.747912    0.202804   -1.725007
C     -1.435469    0.796880   -2.505390
H      1.817458   -0.013799    0.186596
H      1.511704    0.967656   -1.131560
H      2.098428   -0.558810   -1.405314
H      0.115035   -1.574621   -1.036022
H     -1.458436   -0.550258    0.876169
H      0.765267    0.233065    3.323563
H     -2.053161    1.322290   -3.200932
