14
6320_+.log
N      1.110428   -0.000182   -2.062841
C      0.588919   -1.022039   -1.083148
C      0.034534   -0.310635    0.108032
N      0.550880   -0.635465    1.235958
O      0.000878    0.000772    2.275263
C     -0.982169    0.652055   -0.119916
C     -1.812615    1.477250   -0.397724
H      1.373495   -0.420192   -2.956241
H      1.924809    0.487595   -1.682549
H      0.380140    0.702307   -2.230558
H      1.409021   -1.677298   -0.795214
H     -0.178655   -1.588145   -1.613998
H      0.462622   -0.347150    3.049173
H     -2.568338    2.204578   -0.599730
