19
6323_+.log
N      1.597295    0.001157    0.530819
C      0.119820   -0.169852    0.225077
C     -0.619156    0.482675    1.377675
O     -0.002445   -0.002386    2.549565
C     -0.202592    0.372016   -1.124426
C      0.118552   -0.438375   -2.353516
C     -1.297448   -0.275823   -1.922434
H      1.730187   -0.202799    1.530519
H      1.895543    0.962580    0.357222
H      2.173257   -0.615122   -0.041679
H     -0.044256   -1.250093    0.264317
H     -0.551097    1.576890    1.306954
H     -1.674094    0.201141    1.310568
H     -0.449942    0.321603    3.336238
H     -0.120273    1.452278   -1.211711
H      0.457057    0.097293   -3.230427
H      0.571105   -1.415343   -2.222549
H     -1.798208   -1.134768   -1.492207
H     -1.941340    0.376663   -2.496293
