17
6457_+.log
O      0.000083   -0.000228    2.066945
C     -0.206754    0.124033    0.722599
C     -0.328945    1.510873    0.206362
C      0.848346    0.682088   -0.207127
N      0.701258    0.000056   -1.516988
C     -0.138538   -1.244698   -1.287868
C     -0.973185   -0.949864   -0.047432
H      0.448018   -0.827526    2.274540
H     -1.102713    1.742310   -0.518787
H     -0.102234    2.307867    0.904051
H      1.860980    0.937436    0.072230
H      1.611743   -0.247773   -1.904563
H      0.256191    0.617316   -2.198930
H      0.568107   -2.054874   -1.109930
H     -0.705030   -1.461839   -2.192051
H     -1.074069   -1.849429    0.560077
H     -1.981206   -0.617223   -0.300789
