15
6462_+.log
O      2.119475   -0.000188   -0.000000
C      0.956384    0.157178   -0.000000
C     -0.178465    0.287751    1.042999
C     -0.923754   -1.019937    0.781500
C     -0.923754   -1.019937   -0.781501
C     -0.178465    0.287751   -1.042999
N     -0.840029    1.194069    0.000000
H     -0.071266    0.688119    2.046844
H     -1.926168   -1.012848    1.211571
H     -0.380153   -1.860333    1.211900
H     -0.380153   -1.860333   -1.211900
H     -1.926168   -1.012848   -1.211571
H     -0.071266    0.688119   -2.046844
H     -0.478854    2.148375    0.000000
H     -1.860723    1.206969    0.000000
