17
6464_+.log
O      0.000154    0.000344    2.123229
C      0.326255    0.400304    0.844928
C     -0.931506    0.475127   -0.053977
C     -0.822781   -1.064011   -0.179989
C      0.679563   -0.772593   -0.123464
N      0.877184    0.000120   -1.401852
C     -0.335082    0.940827   -1.366246
H      0.779355   -0.000431    2.687365
H      1.002853    1.266193    0.830088
H     -1.834087    0.979622    0.279152
H     -1.149998   -1.571093    0.723094
H     -1.228037   -1.555235   -1.066874
H      1.463117   -1.509268    0.041272
H      0.865220   -0.607947   -2.219790
H      1.758499    0.513124   -1.412223
H      0.016036    1.971714   -1.375244
H     -0.957959    0.752048   -2.238398
