15
6465_+.log
O     -0.000149    0.000006    2.134499
C     -0.089783   -0.035642    0.960982
C     -0.909550    0.625970   -0.152374
C     -1.011862   -0.823135   -0.704967
C      0.415342   -0.993246   -0.160101
N      1.168856   -0.000130   -1.005525
C      0.205196    1.200688   -1.016611
H     -1.765582    1.264958    0.039097
H     -1.722298   -1.440773   -0.157882
H     -1.154486   -0.938205   -1.781520
H      0.942333   -1.931961   -0.018019
H      1.335428   -0.355406   -1.947084
H      2.076316    0.236402   -0.602215
H      0.709635    2.070038   -0.598295
H     -0.092866    1.399622   -2.044462
