17
6472_+.log
O      0.000099    0.000468    2.491000
C     -0.426635   -0.596668    1.323851
C     -1.694381   -0.168284    0.671892
C     -0.364143    0.299934    0.122832
C      0.115769   -0.205695   -1.172704
C      0.540565    0.692310   -2.258040
N      1.586176   -0.000543   -1.467672
H     -0.486786   -0.364830    3.236936
H     -0.126404   -1.634680    1.183812
H     -2.257965   -0.901607    0.107672
H     -2.287818    0.589622    1.166396
H     -0.115026    1.333743    0.344956
H     -0.198506   -1.202788   -1.463464
H      0.508005    1.762445   -2.094834
H      0.482557    0.368097   -3.289098
H      2.115505    0.542257   -0.793113
H      2.114281   -0.743983   -1.910422
