17
6475_+.log
O     -0.000437    0.000274    2.514817
C      0.112600   -0.701421    1.339460
C     -1.104904   -1.210973    0.615751
C     -0.398783    0.019029    0.144742
N      0.362323   -0.000067   -1.097301
C     -0.103826    0.733783   -2.295700
C      1.087749    1.200935   -1.568077
H     -0.116154   -0.610747    3.250223
H      1.022696   -1.289261    1.212479
H     -1.000170   -2.130034    0.049763
H     -2.078177   -1.056650    1.064118
H     -0.867138    0.981066    0.314079
H      0.822850   -0.884327   -1.288769
H     -1.048126    1.241985   -2.149886
H      0.014229    0.200942   -3.230442
H      1.003102    2.045305   -0.896278
H      2.072509    1.008104   -1.973695
