15
6484_+.log
O      0.000227    0.000919    2.281737
C      0.009457    0.140616    1.104523
C     -1.163542    0.574009    0.226717
C     -0.717206    0.360480   -1.185708
C     -0.261865   -0.978320   -1.595883
N      0.752909    0.000089   -1.150380
C      1.251349   -0.074957    0.227211
H     -2.052358   -0.004424    0.484607
H     -1.384445    1.625818    0.428632
H     -0.979922    1.071193   -1.959621
H     -0.386892   -1.818441   -0.921478
H     -0.211282   -1.222928   -2.649501
H      1.364244    0.388732   -1.859752
H      1.969314    0.730337    0.396242
H      1.728423   -1.034075    0.427931
