17
6486_+.log
O      0.000143   -0.000115    2.100746
C     -0.808502    0.122470    0.960082
C     -0.192643    1.268993    0.147776
C      0.857770    0.600272   -0.709697
N      0.316348    0.000213   -1.968009
C      0.571520   -0.847269   -0.763169
C     -0.667908   -1.123418    0.058509
H     -0.416685   -0.580516    2.744797
H     -1.852381    0.320987    1.221452
H     -0.932831    1.797819   -0.458877
H      0.261710    1.999014    0.816541
H      1.853009    1.008574   -0.828327
H     -0.646041    0.199876   -2.222865
H      0.943548   -0.095179   -2.759433
H      1.339615   -1.592631   -0.923899
H     -0.540134   -2.029010    0.651084
H     -1.544026   -1.281946   -0.578261
