17
6495_+.log
O     -0.000222    0.000323    1.812980
C     -0.608763   -0.641064    0.710796
C     -1.505960    0.353724   -0.023709
C     -0.592663    1.114962   -0.996788
C      0.508059    0.126378   -1.314400
N      1.558242    0.000076   -0.263064
C      0.466079   -0.988299   -0.344795
H      0.055676   -0.591212    2.568596
H     -1.142006   -1.541074    1.019417
H     -2.251219   -0.204321   -0.595560
H     -2.033049    0.995831    0.680441
H     -1.106695    1.399222   -1.914705
H     -0.185528    2.033814   -0.567872
H      0.901879    0.008840   -2.316279
H      1.500725    0.583177    0.576676
H      2.492238   -0.276422   -0.543172
H      0.767233   -2.003671   -0.568286
