13
6497_+.log
O     -0.000197    0.000031    2.170439
C     -0.170754    0.026426    0.993655
C     -1.138698    0.816760    0.190462
C     -1.042742    0.503905   -1.103070
C      0.018952   -0.524857   -1.333304
N      1.383405    0.000076   -0.992068
C      0.609325   -0.826921   -0.026182
H     -1.799754    1.547298    0.636859
H     -1.620289    0.920924   -1.917544
H     -0.001075   -1.213645   -2.168074
H      1.473841    0.998855   -0.815958
H      2.198277   -0.429296   -1.423884
H      1.068359   -1.763897    0.260082
