15
6498_+.log
O     -0.000919   -0.000330    1.937873
C     -0.656045   -0.424193    0.768875
C     -1.246836    0.718085   -0.031135
C     -0.671213    0.863292   -1.220611
C      0.388063   -0.165406   -1.398487
N      1.498378    0.000314   -0.389420
C      0.404916   -0.976806   -0.172895
H     -0.631555    0.135575    2.651834
H     -1.396216   -1.206273    0.974691
H     -2.018122    1.360385    0.375519
H     -0.891194    1.613281   -1.968030
H      0.720709   -0.527447   -2.362529
H      2.420977   -0.366029   -0.600489
H      1.484253    0.827005    0.205591
H      0.723222   -2.009311   -0.128965
