19
6505_+.log
O      0.000884    0.000355    1.809932
C     -0.537349   -0.788675    0.765202
C     -1.475276    0.005567   -0.136428
C     -0.758478    1.196537   -0.763396
C      0.534860    0.789379   -1.439186
N      1.379571    0.000518   -0.481118
C      0.688495   -1.237578   -0.004648
H     -0.684695    0.249672    2.436573
H     -1.039310   -1.680174    1.156269
H     -1.868048   -0.661357   -0.911127
H     -2.337489    0.349138    0.440063
H     -1.392074    1.679511   -1.509499
H     -0.545578    1.951365   -0.001428
H      0.363653    0.140233   -2.300648
H      1.121783    1.649903   -1.762089
H      1.559531    0.567008    0.355560
H      2.279073   -0.228686   -0.902899
H      1.380686   -1.778858    0.640054
H      0.437414   -1.843451   -0.874875
