17
6506_+.log
O     -0.000321   -0.001437    2.273434
C     -0.101782   -0.144058    1.091492
C     -1.359923    0.078244    0.299515
C     -1.092984    0.725708   -1.057678
C     -0.011203    0.005509   -1.828827
N      1.257978    0.000303   -1.024178
C      1.112683   -0.664089    0.311583
H     -1.818892   -0.909128    0.154660
H     -2.050657    0.666139    0.903792
H     -2.001082    0.723059   -1.663279
H     -0.817081    1.778783   -0.931980
H     -0.262433   -1.040580   -2.016706
H      0.213558    0.488202   -2.780676
H      1.560413    0.967335   -0.883098
H      2.005392   -0.455017   -1.552138
H      2.020141   -0.501376    0.891464
H      0.988334   -1.734633    0.128075
