17
6517_+.log
O      0.000206   -0.000326    1.850770
C     -0.755760   -0.417592    0.748918
C     -1.285922    0.823936    0.028753
C     -0.129489    1.284538   -0.846787
N      0.504122    0.000049   -1.273914
C      1.519028   -0.652830   -0.419998
C      0.117529   -1.086304   -0.325764
H      0.007723   -0.676925    2.533863
H     -1.564967   -1.090642    1.040470
H     -2.139974    0.552748   -0.596154
H     -1.604329    1.581759    0.742921
H     -0.430464    1.831017   -1.738809
H      0.611456    1.870207   -0.303946
H      0.537472   -0.203243   -2.266429
H      1.904257   -0.015265    0.366167
H      2.235898   -1.258634   -0.960036
H     -0.191343   -2.017251   -0.785901
