17
6542_+.log
O      0.000454    0.000085    2.064360
C     -0.365433   -0.561570    0.843184
C      0.923504   -0.910031    0.059471
N      0.743868   -0.000230   -1.117594
C     -0.703645   -0.239915   -1.494820
C     -0.970359    0.452169   -0.148734
C      0.270596    1.293902   -0.482602
H     -0.722147   -0.063574    2.695720
H     -1.010164   -1.436155    0.966977
H      0.991359   -1.940075   -0.285183
H      1.816411   -0.630733    0.615996
H      1.482615   -0.005583   -1.819219
H     -0.966389    0.353018   -2.368966
H     -0.951345   -1.292518   -1.628628
H     -1.927349    0.902170    0.092184
H      0.906559    1.646391    0.326979
H      0.117099    2.045870   -1.254118
