13
6544_+.log
O      0.000670    0.000274    2.081602
C      0.429572   -0.031340    0.991527
C      1.703086    0.481646    0.316900
N      1.161223    0.000394   -1.012783
C     -0.095999   -0.621557   -0.354295
C     -1.333160   -0.145582   -0.886657
C     -2.378474    0.272023   -1.299471
H      1.859112    1.559884    0.339405
H      2.616883   -0.041997    0.598822
H      1.752417   -0.665294   -1.509602
H      0.911544    0.754081   -1.654044
H     -0.006491   -1.712649   -0.377994
H     -3.314255    0.635529   -1.665784
