15
6546_+.log
O      0.000071    0.000074    1.795511
C     -0.026063   -0.002514    0.414377
C      0.912167    1.063228   -0.217056
N      1.482200    0.000022   -1.130459
C      0.905248   -1.069947   -0.229387
C     -1.356857    0.003741   -0.166042
C     -2.456730    0.009617   -0.643884
H     -0.893186   -0.051696    2.150959
H      1.678095    1.371728    0.492477
H      0.483179    1.910278   -0.745984
H      1.041960    0.006693   -2.050049
H      2.493087   -0.002364   -1.256659
H      0.470888   -1.907805   -0.768558
H      1.669175   -1.390850    0.476754
H     -3.441985    0.015332   -1.055935
