17
6547_+.log
O      0.000795   -0.000681    2.161617
C      0.252816    0.567249    0.933908
C      1.723621    0.477659    0.505247
N      1.293372   -0.000261   -0.861141
C     -0.115365   -0.300234   -0.304433
C     -1.237586    0.051798   -1.194691
C     -2.154303   -0.827851   -1.577579
H     -0.700902    0.464456    2.625217
H     -0.144236    1.582883    0.839055
H      2.239003   -0.329775    1.023152
H      2.337381    1.374886    0.476319
H      1.800388   -0.789419   -1.258306
H      1.273575    0.744651   -1.556755
H     -0.120046   -1.352384   -0.015284
H     -1.321718    1.095439   -1.493591
H     -2.107606   -1.869988   -1.277924
H     -2.994266   -0.532351   -2.194567
