12
6549_+.log
O     -0.000101    0.000347    2.099706
C      0.432045   -0.017807    1.013547
C      1.686630    0.523264    0.329114
N      1.157824    0.000100   -0.997031
C     -0.072467   -0.635090   -0.337406
C     -1.318796   -0.168475   -0.883977
N     -2.292612    0.256033   -1.322423
H      1.802335    1.607522    0.330694
H      2.619989    0.037678    0.616776
H      1.767136   -0.665748   -1.473867
H      0.909163    0.736509   -1.660807
H      0.005819   -1.726065   -0.353882
