15
6553_+.log
O      1.470150    0.000107   -0.000000
C      0.098879   -0.035693   -0.000000
C     -0.508051    0.914132    1.063931
N     -0.683551    1.977859    0.000000
C     -0.508051    0.914132   -1.063931
C     -0.412506   -1.468370    0.000000
O      0.369184   -2.370216    0.000000
H      1.784853   -0.921638   -0.000000
H      0.159220    1.216113    1.867477
H     -1.486641    0.621625    1.443427
H     -1.561746    2.495856    0.000000
H      0.086069    2.647775    0.000000
H     -1.486641    0.621625   -1.443427
H      0.159220    1.216113   -1.867477
H     -1.507846   -1.623953    0.000000
