15
6558_+.log
O      0.000033    0.000158    2.199532
C      0.047898    0.001054    1.012701
C      1.222794   -0.591020    0.213379
N      1.088055   -0.000163   -1.161006
C     -0.302191    0.535747   -1.305964
C     -1.377754   -0.429285   -1.007760
C     -0.936368    0.562849    0.047095
H      2.178915   -0.312087    0.651617
H      1.157752   -1.677631    0.159018
H      1.752228    0.767762   -1.271383
H      1.298301   -0.680452   -1.893992
H     -0.394405    1.318795   -2.045952
H     -1.146455   -1.479449   -0.867543
H     -2.335279   -0.240583   -1.475485
H     -1.596239    1.355611    0.371085
