15
6561_+.log
O     -0.000166   -0.000900    2.039240
C     -0.229719   -0.469000    0.763672
C     -1.485804    0.167845    0.196312
N     -1.282487    0.076901   -1.300640
C      0.179961    0.281770   -1.572041
C      0.847700   -0.073094   -0.246365
O      2.012036    0.000146   -0.024034
H      0.905559   -0.208854    2.302769
H     -0.315894   -1.571121    0.722791
H     -1.524136    1.223376    0.470319
H     -2.421582   -0.319174    0.462346
H     -1.861889    0.757836   -1.792086
H     -1.575920   -0.843507   -1.631469
H      0.512651   -0.336067   -2.405312
H      0.359930    1.331760   -1.807634
