15
6562_+.log
O      0.000002    0.000296    2.282341
C     -0.054882    0.000626    1.084942
C      1.111892    0.583828    0.290817
N      1.168646   -0.000078   -1.084740
C     -0.114719    0.158619   -1.836593
C     -1.253646   -0.348435   -1.019806
C     -1.211941   -0.462921    0.307982
H      2.050745    0.381449    0.804937
H      0.981999    1.664304    0.189661
H      1.376282   -0.999499   -1.008197
H      1.938110    0.417777   -1.612391
H     -0.225722    1.220397   -2.079557
H     -0.018337   -0.389784   -2.775446
H     -2.144492   -0.622648   -1.575113
H     -2.048097   -0.855228    0.875253
