17
6613_+.log
O      0.000409   -0.001088    2.384433
C      0.746974   -0.046238    1.462253
C      0.370837   -0.720144    0.139934
C     -1.108843   -0.631799   -0.189993
C     -1.222494    0.681980   -0.954298
C     -0.002490    0.669601   -1.852060
N      1.068205    0.000225   -1.002834
H      1.777344    0.376064    1.515985
H      0.756649   -1.742766    0.182526
H     -1.690925   -0.647690    0.731570
H     -1.419206   -1.477033   -0.807430
H     -2.138527    0.756870   -1.539019
H     -1.195256    1.534626   -0.270558
H     -0.148288    0.037822   -2.727886
H      0.360408    1.645347   -2.170806
H      1.625643   -0.640830   -1.565268
H      1.722388    0.695256   -0.634236
