19
6616_+.log
O      0.004172    0.008471    2.552264
C     -0.914665    0.301685    1.530050
C     -0.346085   -0.299158    0.262477
C     -1.091576    0.053512   -1.019387
C     -0.105355   -0.308166   -2.112366
N      1.254654   -0.007511   -1.501474
C      1.060366    0.210881   -0.011434
H     -0.353133    0.277416    3.402718
H     -1.039123    1.387340    1.397592
H     -1.904027   -0.127914    1.727063
H     -0.312714   -1.387894    0.383874
H     -1.326259    1.121991   -1.045929
H     -2.025062   -0.495933   -1.139279
H     -0.209947    0.252230   -3.039567
H     -0.123480   -1.373655   -2.339117
H      1.899852   -0.776451   -1.674136
H      1.672033    0.816563   -1.930381
H      1.847967   -0.299876    0.536984
H      1.137230    1.283156    0.173480
