15
6618_+.log
O      0.000320    0.001067    2.570625
C     -0.787106    0.142192    1.674753
C     -0.350805    0.044211    0.269585
C     -1.095338    0.141560   -0.828113
C     -0.290543   -0.060499   -2.065938
N      1.128305    0.000190   -1.540870
C      1.082413   -0.244365   -0.048871
H     -1.858666    0.347726    1.846233
H     -2.163599    0.314195   -0.861659
H     -0.457839   -1.040894   -2.521233
H     -0.426018    0.702206   -2.834070
H      1.740108   -0.662143   -2.017462
H      1.509436    0.930460   -1.714606
H      1.795836    0.405683    0.457036
H      1.356359   -1.282201    0.153433
