17
6620_+.log
O      0.000189   -0.000092    2.461646
C     -1.031762    0.216208    1.528640
C     -0.432341    0.051855    0.176189
C     -0.936356   -0.541140   -0.898566
C     -0.031171   -0.428455   -2.080001
N      1.264991   -0.000420   -1.432011
C      0.916601    0.639453   -0.111804
H     -0.331012    0.155766    3.350323
H     -1.442098    1.233753    1.613847
H     -1.862241   -0.488176    1.649722
H     -1.897531   -1.032713   -0.964809
H     -0.337113    0.347180   -2.788305
H      0.131723   -1.355349   -2.631260
H      1.832316   -0.829096   -1.253334
H      1.813508    0.616359   -2.030420
H      1.672976    0.393629    0.632389
H      0.887563    1.725102   -0.243086
