17
6657_+.log
O      0.135981    0.000998    2.313786
C      0.151947   -0.958149    1.288240
C     -0.110962   -0.219230    0.000000
C      0.151947   -0.958149   -1.288240
O      0.135981    0.000998   -2.313786
C     -1.046011    0.916527   -0.000000
N      0.412823    1.174582    0.000000
H      0.284226   -0.413994    3.167971
H      1.120820   -1.468064    1.223100
H     -0.630407   -1.716509    1.412760
H      1.120820   -1.468064   -1.223100
H     -0.630407   -1.716509   -1.412760
H      0.284226   -0.413994   -3.167971
H     -1.528489    1.192410    0.927787
H     -1.528489    1.192410   -0.927787
H      0.820615    1.495003    0.874777
H      0.820615    1.495003   -0.874777
