15
6667_+.log
O     -0.001094    0.000274    2.344715
C     -0.675017   -1.005787    1.634959
C     -0.790744   -0.503784    0.221205
N     -0.872185    0.967536    0.109265
C      0.321752    0.245363   -0.404844
C      0.487582    0.204988   -1.900382
O      1.548313   -0.000975   -2.393810
H      0.124379   -0.251196    3.264326
H     -1.678294   -1.193236    2.035073
H     -0.125470   -1.954032    1.614917
H     -1.476877   -1.028956   -0.435425
H     -0.731095    1.457367    0.994065
H     -1.516870    1.395491   -0.548847
H      1.216357    0.422597    0.180788
H     -0.440857    0.342640   -2.497787
