17
6687_+.log
O      0.001490    0.000783    2.362591
C     -0.072308    1.082792    1.855040
C      0.118869    1.286285    0.365659
C      0.370309   -0.041033   -0.295190
C     -0.764562   -1.057246   -0.481603
C     -0.265107   -1.280904   -1.911001
N      0.547155   -0.000023   -1.816264
H     -0.279478    1.996320    2.441772
H     -0.775016    1.783877   -0.031432
H      0.956275    1.980903    0.223323
H      1.262490   -0.518435    0.111316
H     -1.750694   -0.592052   -0.448786
H     -0.749253   -1.912672    0.187203
H      0.421137   -2.118752   -2.017613
H     -0.974028   -1.266614   -2.735305
H      1.500906   -0.024435   -2.174806
H      0.066354    0.793258   -2.239846
