19
6688_+.log
O     -0.000029   -0.002078    2.220104
C     -1.318235   -0.117872    1.717076
C     -1.295582    0.382929    0.288898
C     -0.268370   -0.345509   -0.548875
C      0.002213    0.166839   -1.972395
N      1.492151   -0.000044   -1.745306
C      1.217711   -0.095015   -0.247577
H      0.007594   -0.220777    3.155454
H     -2.023829    0.481013    2.302413
H     -1.657110   -1.162052    1.746011
H     -1.075735    1.456332    0.285133
H     -2.288619    0.253116   -0.151005
H     -0.477723   -1.418955   -0.562579
H     -0.210658    1.228131   -2.098475
H     -0.362615   -0.396324   -2.828659
H      1.849459   -0.871933   -2.132306
H      2.095692    0.758011   -2.059449
H      1.803867   -0.865450    0.244448
H      1.411853    0.874585    0.205391
