15
6693_+.log
O     -0.000426   -0.001043    3.186879
C     -0.647145   -0.038044    2.180362
C     -0.015441   -0.216448    0.850324
C     -0.734034   -0.219026   -0.267037
C     -0.201845   -0.373084   -1.634456
C      0.125057    0.791725   -2.482088
N      1.218551    0.000745   -1.867050
H     -1.751075    0.059877    2.179336
H      1.063609   -0.354649    0.876823
H     -1.816281   -0.113908   -0.221659
H     -0.471769   -1.284288   -2.162356
H      0.025855    1.786393   -2.065708
H      0.066536    0.706799   -3.559552
H      1.790062   -0.589040   -2.463068
H      1.721533    0.424297   -1.092969
