13
6694_+.log
O      0.000144   -0.001624    3.102094
C     -0.884070   -0.270039    2.341078
C     -0.646109   -0.279918    0.899735
C     -0.409910   -0.278481   -0.280429
C     -0.096697   -0.259044   -1.668535
C      0.310356    0.994506   -2.342295
N      1.350857    0.000070   -2.009899
H     -1.909258   -0.522913    2.657475
H     -0.524195   -1.040295   -2.289870
H      0.124029    1.105173   -3.402761
H      0.367307    1.903680   -1.758124
H      1.774136   -0.537615   -2.760204
H      1.970388    0.198940   -1.229004
