17
6697_+.log
O     -0.004960   -0.000751    2.742423
C      0.383423   -1.131405    2.019544
C      0.130591   -0.905076    0.572027
C     -0.418007    0.204714    0.093432
C     -0.690650    0.463361   -1.333172
C      0.098525    1.446578   -2.097483
N      0.336825   -0.001426   -2.313364
H      0.093051   -0.170015    3.682615
H     -0.172135   -2.032129    2.323445
H      1.451576   -1.363409    2.154121
H      0.415920   -1.728810   -0.080900
H     -0.722686    0.991866    0.776362
H     -1.696900    0.277735   -1.701310
H      0.920334    1.950053   -1.604449
H     -0.341131    1.951305   -2.947835
H      0.039597   -0.417816   -3.188603
H      1.186372   -0.394477   -1.921436
