17
6698_+.log
O      0.000675   -0.000421    2.614550
C      0.278880   -0.695508    1.441124
C     -0.354543    0.023537    0.283999
C     -1.166921    1.063702    0.430038
C     -0.046689   -0.545900   -1.045698
C     -0.174151    0.204446   -2.300845
N      1.182798    0.001693   -1.745310
H      0.294061   -0.511172    3.373456
H      1.365090   -0.783230    1.266133
H     -0.117287   -1.723487    1.464400
H     -1.658554    1.542417   -0.408435
H     -1.378802    1.446905    1.419770
H     -0.067314   -1.628923   -1.133230
H     -0.356537   -0.328150   -3.225073
H     -0.500111    1.235614   -2.275433
H      1.628791    0.802460   -1.308923
H      1.815896   -0.631921   -2.221140
