17
6743_+.log
O     -0.014604    0.012545    3.296952
C      0.225510    0.429841    2.210717
C     -0.296273   -0.270858    0.963724
N      0.549972    0.000542   -0.236521
C     -0.000631   -0.549503   -1.496566
C     -0.973043    0.279605   -2.259507
C      0.416876    0.072061   -2.782858
H      0.810809    1.363185    2.049578
H     -0.340046   -1.347327    1.126900
H     -1.302656    0.092689    0.739369
H      0.672653    1.010872   -0.347467
H      1.489184   -0.380248   -0.089080
H     -0.131874   -1.621482   -1.422122
H     -1.799850   -0.236315   -2.729330
H     -1.221728    1.265984   -1.882256
H      1.094447    0.918611   -2.755985
H      0.574488   -0.593748   -3.620950
