12
6746_+.log
O     -0.001068   -0.000066    1.540745
C      0.365447    0.088421    0.402849
C      1.745966    0.038278   -0.022518
N      2.824537    0.001600   -0.421397
C     -0.655346    0.229886   -0.705151
C     -1.677888   -0.837403   -0.808320
N     -1.998439    0.435268   -0.138741
H     -0.410348    0.821282   -1.579832
H     -1.619797   -1.682742   -0.133338
H     -2.179298   -0.993405   -1.754955
H     -2.629519    1.094691   -0.584602
H     -2.003447    0.425999    0.886411
