19
6749_+.log
O     -0.002200   -0.009521    2.417571
C      1.332465    0.141394    1.990238
C      1.235024    0.775170    0.620672
N      0.249488   -0.002528   -0.187460
C     -0.210256    0.656322   -1.437855
C     -1.153191   -0.193351   -2.219937
C     -1.633399   -1.375767   -1.867718
H     -0.041018   -0.348357    3.316283
H      1.851784   -0.824707    1.939996
H      1.911038    0.804726    2.640751
H      2.190324    0.791426    0.097054
H      0.843181    1.790032    0.696016
H     -0.544621   -0.183533    0.441087
H      0.635521   -0.920162   -0.421762
H      0.680631    0.897483   -2.024037
H     -0.676167    1.602191   -1.148238
H     -1.448369    0.248769   -3.166783
H     -1.394900   -1.880612   -0.935820
H     -2.316524   -1.907174   -2.517827
