19
6753_+.log
O      0.012257   -0.002681    2.723477
C      0.016343    1.182321    1.959760
C     -0.575355    0.791497    0.623854
N      0.139361   -0.424944    0.138827
C     -0.502194   -1.169942   -0.982048
C     -0.327578   -0.383609   -2.262357
O      1.030702   -0.006495   -2.279686
H      0.360976    0.155368    3.605073
H     -0.604826    1.968205    2.401070
H      1.032543    1.578646    1.835148
H     -1.625218    0.518408    0.737514
H     -0.478141    1.583709   -0.116742
H      1.071544   -0.159761   -0.200355
H      0.259924   -1.020960    0.966136
H      0.016031   -2.127155   -1.053758
H     -1.549387   -1.343808   -0.736778
H     -0.594276   -1.031365   -3.103039
H     -0.988617    0.491352   -2.286371
H      1.261445    0.410153   -3.114309
