17
6755_+.log
O     -0.008081   -0.000030    2.788011
C     -0.662350   -1.022729    2.071332
C     -0.156951   -0.879292    0.652724
N     -0.265630    0.566240    0.270501
C      0.514898    0.963783   -0.931883
C     -0.049211    0.339140   -2.198534
O      0.650243    0.003429   -3.099046
H     -0.223471   -0.037069    3.724384
H     -1.753739   -0.912433    2.115105
H     -0.405197   -2.022835    2.433228
H     -0.716155   -1.485503   -0.059500
H      0.902291   -1.131910    0.593541
H      0.049811    1.080436    1.106194
H     -1.250181    0.814436    0.144082
H      1.554694    0.670291   -0.792882
H      0.460774    2.053004   -1.024618
H     -1.158448    0.251361   -2.245300
