15
6763_+.log
O     -0.000260    0.000690    1.384282
C      0.129507    0.762670    0.232041
C      1.555704    0.667261   -0.304422
O      2.349684   -0.000663    0.290229
C     -0.872325    0.256065   -0.791204
C     -1.095820   -1.188757   -0.958074
N     -2.047653   -0.389008   -0.156744
H      0.887309   -0.339641    1.601728
H     -0.084333    1.823443    0.432957
H      1.810495    1.233431   -1.216569
H     -1.127867    0.911396   -1.616039
H     -1.497755   -1.560310   -1.891257
H     -0.517876   -1.882353   -0.360504
H     -1.952390   -0.492729    0.855310
H     -2.980723   -0.212631   -0.512285
