17
6765_+.log
O      0.000413    0.000472    1.956549
C      0.302994    1.195179    1.275022
C      0.405009    0.870842   -0.205143
O      1.467369   -0.000466   -0.510719
C     -0.835625    0.151691   -0.678307
C     -0.789647   -0.792174   -1.807345
N     -0.800667   -1.305612   -0.422555
H      0.067532    0.138733    2.904993
H     -0.475283    1.956440    1.419573
H      1.254576    1.629046    1.607629
H      0.479255    1.810812   -0.768267
H      2.292358    0.328612   -0.142461
H     -1.785868    0.612394   -0.436810
H      0.150956   -0.952540   -2.316462
H     -1.695535   -0.994049   -2.363124
H     -1.624126   -1.763541   -0.051476
H      0.090643   -1.619110   -0.040349
