15
6807_+.log
O      0.000100   -0.007893    2.701527
C      0.837053    0.073222    1.868732
O      0.575295    0.003672    0.528515
C     -0.793011   -0.188723    0.206442
C     -0.913240   -0.067288   -1.282660
C     -0.087510    0.864412   -2.063234
N      0.247426   -0.581035   -2.063118
H      1.914063    0.213186    2.019298
H     -1.423581    0.566450    0.683757
H     -1.133089   -1.170930    0.545486
H     -1.868188   -0.363369   -1.702313
H      0.647783    1.471670   -1.551970
H     -0.453343    1.233917   -3.012090
H      1.057295   -0.852213   -1.510306
H      0.087818   -1.127099   -2.902465
