15
6808_+.log
O     -0.000276    0.001014    2.566741
C      0.336177    0.065017    1.285767
O      1.471756    0.001524    0.921997
C     -0.806129    0.209672    0.279862
C     -0.181836    0.415695   -1.067003
C      0.261848   -0.703722   -1.899113
N     -0.976777    0.031741   -2.276530
H     -0.949097    0.085257    2.717230
H     -1.449875    1.053837    0.543643
H     -1.418605   -0.699011    0.305176
H      0.334828    1.357430   -1.212165
H      0.081528   -1.717970   -1.565271
H      1.086052   -0.567518   -2.586726
H     -0.948154    0.639566   -3.088148
H     -1.867887   -0.434647   -2.145793
