14
6820_+.log
O     -0.000255   -0.000620    2.001586
N      0.225235   -0.000507    0.671193
C      1.249551    0.620889    0.131109
N      1.143873    0.661192   -1.171351
C     -0.077227   -0.017793   -1.619854
C     -0.737147   -0.374157   -0.305526
C     -1.919741   -0.892549   -0.033570
H      0.119275   -0.913895    2.307797
H      2.057913    1.041700    0.714938
H      1.842820    1.050975   -1.783035
H     -0.688506    0.649669   -2.229892
H      0.178425   -0.902876   -2.208699
H     -2.239681   -1.063560    0.985776
H     -2.606312   -1.143182   -0.830541
