16
6841_+.log
O      3.057346    0.000300    0.000000
N      1.848667   -0.604400    0.000000
C      0.886390    0.222443   -0.000000
C     -0.489404   -0.324162   -0.000000
C     -1.481830    0.190270    1.063148
N     -2.561832    0.277575    0.000000
C     -1.481830    0.190270   -1.063148
H      3.691158   -0.726444    0.000000
H      1.056155    1.301599   -0.000000
H     -0.435980   -1.414162   -0.000000
H     -1.751205   -0.455973    1.895310
H     -1.261367    1.196730    1.416879
H     -3.145856    1.112696    0.000000
H     -3.173582   -0.537735   -0.000000
H     -1.261367    1.196730   -1.416879
H     -1.751205   -0.455973   -1.895310
