15
6953_+.log
C      0.593073    1.489476   -1.679452
C     -0.360043    0.560746   -1.002474
N     -0.286741   -0.905232   -1.437505
C     -0.478489   -1.566715   -0.098981
S      0.000219    0.000013    0.711499
O      1.411729   -0.000425    0.901343
O     -0.935548    0.454966    1.672806
H      0.369268    1.575722   -2.745621
H      1.628666    1.174075   -1.537403
H      0.480924    2.484192   -1.242805
H     -1.407464    0.864929   -1.054511
H      0.638144   -1.110806   -1.822465
H     -0.987427   -1.163355   -2.134053
H      0.180630   -2.415944    0.065255
H     -1.527981   -1.807664    0.062039
