15
7054_+.log
C     -2.353321   -0.800390   -0.000000
N     -1.491304    0.416613   -0.000000
C     -0.503568    0.469020    1.144683
S      0.837865   -0.000052    0.000000
O      0.985049   -1.414982   -0.000000
O      1.918556    0.915078    0.000000
C     -0.503568    0.469020   -1.144683
H     -2.975276   -0.783863   -0.893647
H     -2.975276   -0.783863    0.893647
H     -1.707282   -1.677377    0.000000
H     -2.087925    1.244293   -0.000000
H     -0.732695   -0.238068    1.938875
H     -0.384585    1.488214    1.510395
H     -0.384585    1.488214   -1.510395
H     -0.732695   -0.238068   -1.938875
