15
7108_+.log
N      2.360771    0.000243   -1.279938
C      1.282009   -1.033157   -0.949261
C      0.096884   -0.375466   -0.368883
C     -1.028393    0.042631   -1.033147
C     -1.957307    0.674048   -0.180487
C     -1.523198    0.726562    1.112983
S      0.000347   -0.000258    1.305526
H      3.196433   -0.424293   -1.689808
H      2.634382    0.504004   -0.433282
H      1.990187    0.692503   -1.934291
H      1.758138   -1.749320   -0.278490
H      1.047333   -1.531696   -1.889871
H     -1.192288   -0.115502   -2.092759
H     -2.912959    1.063354   -0.503603
H     -2.032338    1.140495    1.970912
