14
7114_+.log
N      1.789224   -0.000075   -1.995467
C      0.294409   -0.055745   -2.078810
C     -0.211190   -0.007804   -0.662539
N      0.707042   -0.038063    0.278842
S     -0.000106   -0.000770    1.752337
C     -1.572801    0.058259    1.142274
C     -1.545770    0.048949   -0.227144
H      2.246184   -0.760688   -2.494961
H      1.979923   -0.072667   -0.959497
H      2.167994    0.881987   -2.336686
H     -0.065794    0.780890   -2.677284
H      0.006513   -0.981660   -2.578200
H     -2.436111    0.097667    1.791814
H     -2.419944    0.080358   -0.862147
