14
7118_+.log
N      1.167184   -0.000098   -2.651928
C      0.028711    0.750277   -1.970049
C     -0.130436    0.291285   -0.569646
C      0.457227    0.867133    0.536055
S     -0.000696    0.001194    1.904232
N     -0.925653   -1.084356    1.112610
C     -0.915348   -0.820990   -0.168625
H      1.291861    0.288604   -3.625494
H      0.990044   -1.006876   -2.635877
H      2.045774    0.157271   -2.153701
H     -0.857400    0.556398   -2.575440
H      0.279927    1.807999   -2.043536
H      1.088728    1.744336    0.585407
H     -1.509861   -1.442130   -0.833097
