14
7122_+.log
N     -2.198135    1.512488    0.000000
C     -0.721570    1.758938   -0.000000
C     -0.106748    0.386989   -0.000000
N     -0.905889   -0.641119   -0.000000
C     -0.208664   -1.813417   -0.000000
C      1.140611   -1.660059    0.000000
S      1.547019    0.000073   -0.000000
H     -2.662234    1.884274   -0.826482
H     -2.662234    1.884273    0.826482
H     -2.250220    0.445925   -0.000000
H     -0.452595    2.338170    0.883642
H     -0.452595    2.338170   -0.883642
H     -0.736313   -2.756340    0.000000
H      1.907308   -2.419954    0.000000
