14
0194.log
C      0.365878   -1.117638   -1.615219
N      0.801395    0.000391   -0.803318
C     -0.269419    0.881954   -0.368535
C     -0.949010    0.298671    0.859292
O      0.000430   -0.001046    1.849447
H      1.233131   -1.694562   -1.940986
H     -0.206632   -0.815139   -2.506299
H     -0.266510   -1.786300   -1.027118
H      1.512120    0.526977   -1.289826
H     -1.015858    1.070526   -1.157969
H      0.176712    1.841176   -0.091893
H     -1.525188   -0.597981    0.583658
H     -1.656599    1.023035    1.271569
H      0.774038   -0.312549    1.357018
