17
0362.log
C      0.936657    0.000243   -1.978765
C      0.372725    0.484198   -0.656889
C     -1.131855    0.190176   -0.457935
C     -1.239235   -0.413978    0.948285
N      0.000179    0.000233    1.588885
C      1.018954   -0.159840    0.569010
H      0.448812    0.495184   -2.822399
H      0.789630   -1.077949   -2.095009
H      2.009224    0.200541   -2.053922
H      0.526913    1.564581   -0.580502
H     -1.504333   -0.505190   -1.213999
H     -1.720574    1.105137   -0.542538
H     -1.327782   -1.510797    0.873720
H     -2.106154   -0.050378    1.505279
H      0.198098   -0.531203    2.426506
H      1.244599   -1.219708    0.346922
H      1.952835    0.327235    0.861903
