14
0528.log
C      0.485845    1.823838   -0.000000
C      0.947374    0.396102   -0.000000
N      2.159133    0.000257    0.000000
N     -0.028274   -0.571479   -0.000000
C     -1.392565   -0.404374    0.000000
C     -2.288073   -1.391455    0.000000
H      1.349531    2.486450    0.000000
H     -0.119932    2.044456    0.882563
H     -0.119932    2.044456   -0.882563
H      2.794311    0.790731    0.000000
H      0.339459   -1.511687   -0.000000
H     -1.721362    0.627758    0.000000
H     -1.996374   -2.435551   -0.000000
H     -3.343686   -1.162822    0.000000
