11
0622.log
N      0.000015   -0.000022    2.746881
C      1.029127   -0.000004    1.715514
C      0.449978    0.025759    0.383809
C     -0.025891    0.016516   -0.726035
C     -0.562507    0.014682   -1.979343
C     -1.036761    0.011302   -3.087760
H      0.432012   -0.053687    3.660999
H     -0.596879   -0.811376    2.644199
H      1.720118   -0.857530    1.761861
H      1.643691    0.898334    1.842959
H     -1.455813    0.010580   -4.065854
