15
0984.log
C     -0.407409   -0.937964   -1.698749
C      0.075053   -0.092202   -0.553713
N      1.496199    0.000134   -0.339262
C     -0.698941    1.146936   -0.180189
C     -0.702605   -0.044823    0.733459
O     -0.000147   -0.000028    1.923031
H     -0.082236   -0.524931   -2.659398
H     -1.498191   -0.997755   -1.712580
H     -0.021256   -1.959570   -1.620773
H      1.932939    0.647319   -0.983463
H      1.938964   -0.903632   -0.456592
H     -1.587783    1.380168   -0.754472
H     -0.129423    2.003926    0.160402
H     -1.609775   -0.634291    0.811010
H      0.924847    0.128554    1.654167
