15
0987.log
C     -1.106385   -1.376633    0.000000
C     -0.458411   -0.003162   -0.000000
N     -1.390335    1.107930    0.000000
C      0.681376    0.133598    1.022943
O      1.675842   -0.000064   -0.000000
C      0.681376    0.133598   -1.022943
H     -1.736436   -1.506470    0.885352
H     -0.354412   -2.170148    0.000000
H     -1.736436   -1.506470   -0.885352
H     -1.997567    1.052887    0.811181
H     -1.997567    1.052887   -0.811181
H      0.763764   -0.653037    1.779773
H      0.714452    1.120035    1.497974
H      0.763764   -0.653037   -1.779773
H      0.714452    1.120035   -1.497974
