17
1030.log
C      0.005152   -1.732067   -2.093679
C     -0.407062   -0.448268   -1.405852
N      0.615806   -0.000232   -0.477832
C      0.321058    1.252875    0.197650
C     -0.565792    0.991544    1.404430
O     -0.000613   -0.000310    2.222095
H     -0.772627   -2.071248   -2.780699
H      0.189310   -2.521919   -1.362537
H      0.921090   -1.591090   -2.675577
H     -1.331608   -0.614803   -0.844809
H     -0.637696    0.323841   -2.159987
H      1.505467    0.057401   -0.954876
H     -0.153238    1.995030   -0.465241
H      1.265943    1.674917    0.550822
H     -1.575944    0.701335    1.077072
H     -0.667961    1.905479    1.995854
H      0.410034   -0.619705    1.600812
