15
1036.log
C      0.495101    0.147008   -2.990190
C     -0.447788    0.154969   -1.806268
N      0.280440   -0.001373   -0.560843
C     -0.550710    0.041279    0.616520
C      0.209520   -0.401677    1.839820
O     -0.000211    0.001471    2.949816
H     -0.058622    0.231440   -3.927291
H      1.078564   -0.775530   -3.011848
H      1.193267    0.988150   -2.943479
H     -1.150243   -0.682218   -1.885880
H     -1.057531    1.074818   -1.823294
H      1.002168    0.707888   -0.502022
H     -1.360771   -0.691408    0.489315
H     -1.032366    1.008422    0.827179
H      0.993577   -1.162424    1.633864
