15
1097.log
N      1.644001   -0.000072   -1.712992
C      0.193939   -0.030700   -1.589997
C     -0.235170    0.478587   -0.246087
C     -1.570505    0.088848    0.327118
C     -0.321639   -0.453524    0.924533
O      0.000489   -0.000081    2.200955
H      1.932475   -0.286835   -2.639937
H      2.063657   -0.649488   -1.058469
H     -0.246812   -1.029970   -1.744195
H     -0.223107    0.613850   -2.371057
H      0.105655    1.480989   -0.006584
H     -2.202800   -0.582806   -0.241601
H     -2.094991    0.833243    0.912202
H     -0.100729   -1.505202    0.741747
H      0.950931    0.135424    2.241610
