15
1733.log
C     -0.778991   -1.503754   -0.519209
C     -0.091881   -0.213425   -0.094198
C     -1.004684    1.038215   -0.174422
C     -1.178923    0.879401    1.342968
N      0.000098   -0.000055    1.359953
C      1.199343   -0.093034   -0.778502
N      2.199387    0.000079   -1.338593
H     -1.760784   -1.571806   -0.045240
H     -0.183689   -2.370829   -0.223867
H     -0.912023   -1.537034   -1.602614
H     -1.887966    0.935557   -0.802704
H     -0.455929    1.937069   -0.448924
H     -2.120206    0.385886    1.611520
H     -1.070038    1.780710    1.949189
H     -0.059717   -0.840476    1.921290
