20
1742.log
C      0.187763    0.000069   -2.197576
C     -0.403292    0.003576   -0.801175
C     -0.733569   -1.399300   -0.248663
C     -0.162514   -1.411143    1.175461
N     -0.000163    0.000010    1.483653
C      0.513139    0.608874    0.267599
C      0.496983    2.119766    0.336089
H     -0.511991   -0.426038   -2.920949
H      1.105374   -0.595158   -2.232813
H      0.432030    1.011323   -2.534584
H     -1.321282    0.601566   -0.807181
H     -0.282443   -2.184914   -0.859578
H     -1.811007   -1.572483   -0.246092
H      0.795130   -1.957664    1.185937
H     -0.825085   -1.894552    1.897502
H      0.605321    0.156713    2.279440
H      1.546991    0.271953    0.051827
H     -0.514516    2.474878    0.547946
H      0.833519    2.559086   -0.606229
H      1.158458    2.489343    1.124536
