20
1800.log
C     -0.369348   -1.232597    1.524333
C      0.016171    0.000529    0.746323
C     -0.263110    1.262686    1.523653
N      1.281766   -0.000300   -0.000000
C      0.016171    0.000529   -0.746323
C     -0.369348   -1.232597   -1.524333
C     -0.263110    1.262686   -1.523653
H      0.166474   -1.248494    2.478460
H     -0.139355   -2.160301    1.001470
H     -1.439366   -1.231288    1.751839
H      0.213012    1.204546    2.506906
H     -1.337658    1.395069    1.681297
H      0.126800    2.146310    1.023488
H      1.681213   -0.934477   -0.000000
H     -0.139355   -2.160301   -1.001470
H      0.166474   -1.248494   -2.478460
H     -1.439366   -1.231288   -1.751839
H      0.126800    2.146310   -1.023488
H     -1.337658    1.395069   -1.681297
H      0.213012    1.204546   -2.506906
