15
1815.log
C     -1.810479   -0.104193   -1.412895
C     -0.905414    0.422789   -0.331390
C     -1.362694    0.399866    1.138120
N      0.000151    0.000618    1.525550
C      0.264821   -0.466565    0.161433
C      1.600330   -0.205022   -0.359348
N      2.643663   -0.000449   -0.797584
H     -2.667062    0.558842   -1.558097
H     -2.194455   -1.096754   -1.162356
H     -1.283465   -0.175516   -2.367685
H     -0.518670    1.411091   -0.586710
H     -2.123192   -0.374379    1.307953
H     -1.702865    1.338848    1.579513
H      0.083459   -0.699923    2.250645
H      0.036075   -1.528807   -0.007973
