15
1870.log
C     -2.391947   -0.033247    0.953085
C     -0.975722    0.454059    0.904807
N     -0.000026   -0.000095    1.895340
C      0.121986   -0.448086    0.514625
C      1.348350    0.053272   -0.210005
C      1.184051    0.029200   -1.655804
N      1.037468   -0.000325   -2.795571
H     -2.956029    0.482334    1.734814
H     -2.430543   -1.106890    1.157919
H     -2.897747    0.145548    0.001296
H     -0.860413    1.507369    0.658068
H     -0.398410   -0.732385    2.474202
H     -0.154856   -1.473611    0.282993
H      2.220390   -0.553796    0.052617
H      1.564147    1.076019    0.109704
