15
1911.log
C     -2.202330   -0.007133    0.000000
C     -0.731034   -0.193994   -0.000000
C      0.321713    0.685222   -0.000000
C      0.296091    2.171005   -0.000000
N      1.512912   -0.000120    0.000000
C      1.195809   -1.264628    0.000000
N     -0.147338   -1.439525   -0.000000
H     -2.444297    1.055294    0.000000
H     -2.672673   -0.450511    0.883708
H     -2.672673   -0.450511   -0.883708
H     -0.724555    2.556572   -0.000000
H      0.809162    2.568130   -0.879673
H      0.809162    2.568130    0.879673
H      1.889019   -2.093138    0.000000
H     -0.633782   -2.318595   -0.000000
