20
1943.log
C      1.973765   -0.000330   -1.583759
C      0.585306   -0.609612   -1.480358
C     -0.333280    0.094924   -0.508087
C     -1.695957   -0.545564   -0.194800
C     -1.416009   -0.162395    1.262457
N      0.000404   -0.000233    0.924800
C      0.700796    1.084936    1.554483
H      2.571452   -0.507609   -2.344551
H      2.511016   -0.083358   -0.636497
H      1.925609    1.059191   -1.852049
H      0.662294   -1.659149   -1.177567
H      0.101663   -0.598897   -2.464696
H     -0.462765    1.149726   -0.813060
H     -1.682783   -1.624669   -0.355791
H     -2.576344   -0.114933   -0.668845
H     -1.625812   -0.896081    2.045824
H     -1.896836    0.791582    1.532838
H      0.754581    0.910658    2.632550
H      0.208417    2.061415    1.391643
H      1.723391    1.154050    1.178666
