16
1949.log
C      1.993888    0.000800   -1.728823
C      0.915615    0.240026   -1.254810
C     -0.376400    0.522380   -0.649074
C     -1.172816   -0.765522   -0.341884
C     -0.907901   -1.036591    1.161756
N      0.000198   -0.000320    1.649512
C     -0.203367    1.127248    0.762597
H      2.944092   -0.206628   -2.160809
H     -0.936040    1.190499   -1.310299
H     -0.854579   -1.589781   -0.979693
H     -2.235503   -0.596695   -0.526572
H     -0.482407   -2.024564    1.342960
H     -1.847152   -0.982478    1.720591
H      0.956508   -0.319475    1.547876
H      0.618256    1.840522    0.827722
H     -1.129891    1.642820    1.040151
