14
1950.log
C      1.120668    0.000393   -2.775277
C      0.605826   -0.009758   -1.686934
C      0.060974   -0.012864   -0.384251
C     -1.211887   -0.206226   -0.031020
C     -1.367511   -0.051775    1.451855
N     -0.000012    0.000207    1.976213
C      0.884125    0.296732    0.850882
H      1.562112    0.006656   -3.743516
H     -2.030719   -0.387437   -0.715415
H     -1.935916   -0.863753    1.915620
H     -1.912165    0.876465    1.679846
H      0.237934   -0.911285    2.341081
H      1.806882   -0.286221    0.903266
H      1.175058    1.355580    0.839978
