18
1952.log
C      1.617241   -0.000370   -2.159638
C      0.203926   -0.443162   -1.788870
C     -0.171408   -0.126675   -0.381125
C     -1.124705    0.696464    0.042445
C     -1.204650    0.722617    1.533478
N     -0.000686   -0.000298    1.937100
C      0.504042   -0.762681    0.800747
H      1.838052   -0.241656   -3.201894
H      2.369010   -0.493251   -1.539457
H      1.733092    1.077851   -2.028755
H      0.117624   -1.525547   -1.948883
H     -0.516820    0.027706   -2.463245
H     -1.786684    1.270423   -0.595294
H     -2.139576    0.248991    1.880134
H     -1.205159    1.744170    1.935515
H     -0.146541   -0.571832    2.754623
H      0.251970   -1.837820    0.837482
H      1.598126   -0.701700    0.740994
