13
1980.log
C     -2.674712   -0.167014   -0.000000
C     -1.544918   -0.869181   -0.000000
C     -0.214718   -0.292081    0.000000
C      0.981768   -0.966172    0.000000
N      1.948269    0.000103   -0.000000
C      1.314705    1.199958    0.000000
N      0.019625    1.062727    0.000000
H     -3.639704   -0.658277    0.000000
H     -2.653490    0.916547   -0.000000
H     -1.584691   -1.955473   -0.000000
H      1.216197   -2.017957    0.000000
H      2.941241   -0.151462   -0.000000
H      1.852349    2.136843    0.000000
