20
1996.log
C      1.827259   -0.000633   -1.852641
C      1.649135    0.389469   -0.392842
C      0.595309   -0.429985    0.297082
N      0.000128   -0.000780    1.565750
C     -0.841756   -0.071676    0.363588
C     -1.359770    1.206935   -0.237704
C     -1.855633   -1.184326    0.398456
H      2.629368    0.572671   -2.322641
H      0.910670    0.173889   -2.421493
H      2.078066   -1.060589   -1.947607
H      1.411372    1.454968   -0.317659
H      2.596563    0.254676    0.141959
H      0.812901   -1.498060    0.284324
H      0.260041    0.966490    1.740534
H     -0.603873    1.992958   -0.271228
H     -2.203860    1.581633    0.349557
H     -1.719230    1.041078   -1.257340
H     -1.438269   -2.066681    0.885262
H     -2.171218   -1.458559   -0.612470
H     -2.744023   -0.879039    0.959368
