20
2003.log
C      1.958311    0.000486   -1.726843
C      1.614937    0.387611   -0.298215
C      0.411862   -0.362381    0.242570
N     -0.000335    0.000131    1.610251
C     -1.116537    0.809088    1.098721
C     -0.961741    0.127912   -0.275456
C     -1.967950   -0.963957   -0.561663
H      2.825649    0.553233   -2.093999
H      1.125458    0.205093   -2.405317
H      2.188243   -1.066114   -1.799469
H      1.424760    1.466179   -0.235521
H      2.473487    0.184896    0.353877
H      0.579143   -1.442105    0.125073
H      0.695225    0.500998    2.148985
H     -0.926366    1.888744    1.067963
H     -2.066438    0.639195    1.616206
H     -0.895855    0.818900   -1.119843
H     -2.038835   -1.652954    0.284235
H     -1.682937   -1.542867   -1.444694
H     -2.963498   -0.548716   -0.741801
