18
2033.log
C      1.073337    0.000576   -2.084344
C      0.526649   -0.553117   -0.805851
C      0.137324   -1.818374   -0.691289
C      0.457930    0.445735    0.315635
C     -0.786669    1.371681    0.242374
C     -1.353139    0.522536    1.390101
N     -0.001399   -0.000890    1.632726
H      1.056900   -0.739651   -2.884836
H      2.105660    0.339378   -1.948139
H      0.498971    0.873595   -2.411493
H      0.199486   -2.503227   -1.529431
H     -0.259448   -2.220894    0.234028
H      1.418547    0.975894    0.356107
H     -1.339922    1.372041   -0.695917
H     -0.564609    2.396372    0.539196
H     -2.073885   -0.224688    1.037481
H     -1.787523    1.059250    2.237658
H      0.081001   -0.990884    1.822952
