20
2034.log
C      2.152914    0.001598   -0.858133
C      0.639836    0.089585   -1.018039
C      0.055824   -1.279887   -1.340589
C      0.019324    0.766917    0.203685
C     -1.520062    0.842773    0.255159
C     -1.450363   -0.233611    1.350209
N     -0.002446   -0.000950    1.465569
H      2.621564   -0.417233   -1.752164
H      2.424362   -0.644258   -0.016677
H      2.592155    0.985248   -0.674368
H      0.428205    0.756244   -1.865561
H      0.240418   -1.993204   -0.531465
H      0.520212   -1.689683   -2.240832
H     -1.021313   -1.241288   -1.515581
H      0.519655    1.735524    0.327490
H     -2.052698    0.582264   -0.659755
H     -1.887309    1.803260    0.616034
H     -1.727491   -1.230617    0.988063
H     -2.005686   -0.033317    2.270901
H      0.579383   -0.828865    1.487608
