18
2102.log
C      1.253311    0.000251   -2.997988
C      0.943750   -0.029418   -1.542028
C     -0.286563    0.040512   -1.029523
C     -0.645446   -0.000416    0.383823
C     -1.929701    0.034864    0.749797
C      0.465853   -0.087451    1.394107
N     -0.000199    0.000475    2.765230
H      1.782801   -0.906751   -3.308457
H      1.908433    0.841901   -3.246697
H      0.345543    0.086463   -3.598463
H      1.798063   -0.117304   -0.874563
H     -1.127083    0.123622   -1.716999
H     -2.715075    0.101534    0.005023
H     -2.219307   -0.027874    1.790594
H      1.215874    0.677432    1.136807
H      0.969150   -1.053434    1.268038
H     -0.342209    0.933519    2.961571
H      0.761800   -0.178421    3.405497
