17
2201.log
C     -0.711448   -0.619250   -2.600344
C      0.024511   -0.574560   -1.307565
C     -0.274090    0.130650   -0.213220
C     -1.465598    1.028587   -0.066041
C      0.634223    0.020543    0.967360
N      0.000223    0.000683    2.187809
N      1.909528   -0.000704    0.932479
H     -0.049770   -0.340524   -3.426920
H     -1.580037    0.037881   -2.627077
H     -1.054158   -1.637535   -2.811109
H      0.907643   -1.208007   -1.254718
H     -1.947412    1.226228   -1.022475
H     -1.175483    1.983635    0.378145
H     -2.222569    0.594455    0.595476
H     -0.911404   -0.420995    2.234675
H      0.611568   -0.213807    2.959936
H      2.233579    0.139595   -0.019293
