19
2213.log
C     -1.337706   -0.071854    1.252084
C     -0.505398   -0.359030   -0.000000
C     -0.122815   -1.838546   -0.000001
C     -1.337708   -0.071853   -1.252084
C      0.709647    0.583531   -0.000000
N      1.937635    0.000842    0.000002
N      0.642282    1.858264   -0.000003
H     -2.225001   -0.710796    1.267952
H     -1.670621    0.967002    1.282329
H     -0.761566   -0.264580    2.160282
H     -1.028459   -2.449638   -0.000000
H      0.449277   -2.113906    0.890619
H      0.449275   -2.113905   -0.890622
H     -2.225002   -0.710796   -1.267951
H     -0.761568   -0.264578   -2.160282
H     -1.670623    0.967003   -1.282327
H      2.066768   -0.989606    0.000004
H      2.739149    0.605741    0.000002
H     -0.321920    2.173383   -0.000005
