19
2229.log
C     -0.743583    1.941325   -1.108408
C     -0.479339    0.486647   -1.455213
C     -0.553021   -0.457054   -0.257645
C     -0.400460   -1.914899   -0.681832
C      0.489132   -0.115791    0.796431
N     -0.000129   -0.000178    2.069149
N      1.742343   -0.000529    0.597304
H     -0.691558    2.574857   -1.996491
H     -0.008868    2.314716   -0.390858
H     -1.738329    2.068856   -0.670967
H      0.505752    0.390970   -1.925847
H     -1.202901    0.143748   -2.202527
H     -1.544831   -0.340376    0.197801
H      0.567701   -2.077758   -1.161864
H     -1.181096   -2.191124   -1.394885
H     -0.465061   -2.586818    0.176316
H     -0.961961    0.257725    2.194852
H      0.651092    0.341588    2.757358
H      1.970010   -0.174040   -0.377435
