13
2350.log
C     -1.704887    0.707166   -0.211658
C     -0.606567    0.067770    0.191529
C     -0.281208    0.038813    1.587417
N     -0.000068   -0.000036    2.703628
C      0.342559   -0.652116   -0.701152
C      0.531334   -0.232895   -2.099861
N      1.585111   -0.000148   -1.116998
H     -2.346059    1.222790    0.492275
H     -1.985905    0.718620   -1.257158
H      0.481799   -1.699378   -0.445806
H     -0.035628    0.618136   -2.461910
H      0.761325   -0.979671   -2.851497
H      1.578966    0.972903   -0.825753
