18
2373.log
C      2.277564   -0.000284   -0.911872
C      1.702542    0.457422    0.416097
C      0.474708   -0.343979    0.875123
N     -0.000933   -0.001148    2.213093
C     -0.625161   -0.214039   -0.078275
C     -1.520579   -0.078284   -0.869389
C     -2.611924    0.068129   -1.814342
H      3.159506    0.584459   -1.182090
H      1.542963    0.105063   -1.713111
H      2.576545   -1.051760   -0.870470
H      1.423080    1.515408    0.366350
H      2.462202    0.366831    1.201361
H      0.763473   -1.403922    0.903180
H     -0.382983    0.937627    2.208502
H      0.778499   -0.005177    2.861447
H     -2.483231    0.958944   -2.434390
H     -3.568571    0.156825   -1.293441
H     -2.672858   -0.797655   -2.478763
