17
2387.log
C     -2.285274   -0.700050    0.857017
C     -1.270576   -0.010616   -0.000597
C     -1.589538    0.538705   -1.175760
N     -0.000055    0.000141    0.568439
C      1.243178    0.052618   -0.046149
C      2.369511    0.179177    0.936601
N      1.493741   -0.000147   -1.289514
H     -2.033122   -1.756690    0.987690
H     -3.278886   -0.628174    0.417998
H     -2.323932   -0.246409    1.853571
H     -2.605777    0.460058   -1.536594
H     -0.889557    1.100235   -1.777931
H      0.024042   -0.169885    1.559923
H      2.347706   -0.634416    1.668345
H      2.299342    1.122716    1.485008
H      3.313279    0.146309    0.398580
H      0.644407   -0.117067   -1.835954
