17
2392.log
C     -1.786249   -1.575868    0.634443
C     -1.006983   -0.418398    0.038949
C     -1.927547    0.739289   -0.308300
N      0.000129   -0.000415    1.013509
C      1.003687    0.918463    0.533506
C      1.793402    0.428566   -0.610290
N      2.390456    0.001608   -1.495885
H     -2.545792   -1.928272   -0.065492
H     -2.282696   -1.267355    1.558156
H     -1.129617   -2.420243    0.863437
H     -0.526900   -0.768389   -0.890470
H     -2.412452    1.121711    0.593487
H     -2.699585    0.408435   -1.005985
H     -1.394983    1.563364   -0.788500
H      0.452404   -0.819798    1.400173
H      1.697090    1.152279    1.345316
H      0.539955    1.863921    0.241497
