18
2621.log
C      1.413822    0.000549    2.257522
N     -0.000028   -0.000575    1.948108
C     -0.301518   -0.341378    0.603208
C     -1.468737    0.259355   -0.083711
C     -0.091443    0.622380   -0.569944
C      0.452091    0.133576   -1.845612
C     -0.146141   -0.683667   -2.706539
H      1.561183    0.281338    3.302020
H      2.008090    0.677980    1.624347
H      1.814255   -1.008337    2.127548
H     -0.430212    0.878489    2.201777
H     -0.081496   -1.377811    0.359451
H     -2.019833    1.030088    0.444212
H     -2.088198   -0.375669   -0.704133
H      0.262160    1.603629   -0.266962
H      1.466949    0.459906   -2.065727
H     -1.160816   -1.038316   -2.560161
H      0.364272   -1.025859   -3.598572
