20
2677.log
C      1.420699    0.000173    1.671046
N      0.000111    0.000329    1.394112
C     -0.398525    0.196055   -0.003374
C     -1.926829    0.263517   -0.006930
C      0.163154    1.474282   -0.624910
C      0.007289   -1.045025   -0.758152
C      0.689032   -1.110488   -1.892366
H      1.577621   -0.238546    2.725236
H      1.937435    0.948454    1.459497
H      1.907325   -0.780049    1.081087
H     -0.468146    0.690081    1.968934
H     -2.269603    1.124089    0.576929
H     -2.348285   -0.640119    0.437312
H     -2.308782    0.368486   -1.023652
H     -0.137887    2.338987   -0.027231
H     -0.215964    1.621876   -1.638756
H      1.253554    1.458824   -0.674043
H     -0.328836   -1.964363   -0.281938
H      1.055019   -0.226192   -2.402280
H      0.905007   -2.065033   -2.358638
