20
2679.log
C      0.999239    0.000958    2.677791
N      0.000119   -0.000805    1.630712
C      0.515580   -0.280898    0.295382
C      0.981666   -1.728699    0.192407
C     -0.567530   -0.006828   -0.700390
C     -0.490391    0.889338   -1.676382
C     -1.557779    1.162528   -2.679906
H      0.554399    0.381613    3.599169
H      1.886621    0.614517    2.445882
H      1.343436   -1.014970    2.883246
H     -0.464415    0.898030    1.607251
H      1.375848    0.371993    0.055361
H      0.156985   -2.406483    0.427038
H      1.802093   -1.937886    0.881990
H      1.333045   -1.940309   -0.819108
H     -1.472503   -0.602580   -0.582214
H      0.422942    1.476781   -1.769025
H     -2.435988    0.537021   -2.509372
H     -1.198982    0.977001   -3.697548
H     -1.872109    2.210595   -2.646603
