20
2681.log
C      1.012392   -0.000835    2.387317
N     -0.000136   -0.000095    1.352774
C      0.519052    0.143950   -0.003538
C      1.361043   -1.066002   -0.391754
C     -0.643336    0.346340   -0.947841
C     -1.619898   -0.779038   -1.087297
C     -0.781191    1.492535   -1.607244
H      0.528767    0.065750    3.363615
H      1.734099    0.829917    2.304229
H      1.577841   -0.934931    2.370967
H     -0.647296    0.760481    1.521253
H      1.164813    1.037299   -0.084130
H      0.803926   -1.992255   -0.235771
H      2.275794   -1.117464    0.201599
H      1.651674   -1.001256   -1.442260
H     -1.964914   -1.112927   -0.105580
H     -1.154805   -1.644752   -1.568958
H     -2.480901   -0.481698   -1.687162
H     -0.063208    2.298513   -1.495545
H     -1.611245    1.661239   -2.285216
