20
2686.log
C      0.957098    0.000937    3.125624
N     -0.000106   -0.000636    2.043187
C      0.549371   -0.508395    0.798481
C     -0.481799   -0.488751   -0.279256
C     -0.406486    0.075975   -1.485768
C      0.778379    0.823471   -2.013973
C     -1.554717   -0.017106   -2.443727
H      0.508395    0.444092    4.016902
H      1.890420    0.545626    2.901703
H      1.231064   -1.029158    3.372064
H     -0.357890    0.934063    1.890060
H      0.855208   -1.547727    0.982383
H      1.463280    0.025494    0.491677
H     -1.405725   -0.999001   -0.013766
H      1.571589    0.951553   -1.278880
H      0.475714    1.814556   -2.368117
H      1.203491    0.303455   -2.879412
H     -2.393432   -0.569457   -2.018120
H     -1.250425   -0.515484   -3.370863
H     -1.907147    0.980217   -2.729141
