18
2689.log
C      0.942132   -0.001080    2.598698
N     -0.000729   -0.001874    1.504631
C      0.504186   -0.685984    0.327898
C     -0.400813   -0.499817   -0.856817
C     -1.162008   -1.498293   -1.310578
C     -0.443531    0.803157   -1.515709
C      0.342335    1.846293   -1.250183
H      0.535853    0.568331    3.436763
H      1.930349    0.418251    2.340856
H      1.103871   -1.026329    2.944937
H     -0.263131    0.944747    1.263066
H      0.578536   -1.753189    0.558360
H      1.525059   -0.353992    0.058710
H     -1.148698   -2.477299   -0.845985
H     -1.820807   -1.362028   -2.161720
H     -1.189821    0.900411   -2.301060
H      1.115533    1.811153   -0.489970
H      0.245923    2.772979   -1.802433
