14
2696.log
C      0.635934   -0.000047    3.420295
N     -0.000422   -0.000138    2.121663
C      0.941856   -0.252654    1.048553
C      0.325838   -0.132940   -0.259973
C     -0.180084   -0.009399   -1.349463
C     -0.751514    0.123815   -2.580136
C     -1.255659    0.244114   -3.668632
H     -0.100374    0.247932    4.186131
H      1.479660    0.704710    3.508211
H      1.016903   -1.001244    3.641126
H     -0.470590    0.880330    1.955396
H      1.333179   -1.271277    1.164879
H      1.822509    0.416417    1.079072
H     -1.701801    0.347931   -4.629099
