20
2701.log
C      0.947414   -0.000491    3.466849
N      0.000155    0.000755    2.375177
C      0.625415   -0.132726    1.077486
C     -0.396556   -0.074730   -0.041167
C      0.229391   -0.247127   -1.421908
C     -0.780796   -0.231506   -2.520316
C     -0.800351    0.627746   -3.529598
H      0.425506    0.163291    4.411760
H      1.741288    0.760266    3.373878
H      1.435973   -0.977393    3.525764
H     -0.549190    0.851349    2.397993
H      1.140604   -1.101111    1.050459
H      1.405126    0.633265    0.903524
H     -0.925182    0.885630   -0.006168
H     -1.150570   -0.850008    0.129519
H      0.768395   -1.203622   -1.443815
H      0.974136    0.536214   -1.597822
H     -1.560180   -0.990313   -2.460073
H     -0.044928    1.401820   -3.627851
H     -1.566722    0.589026   -4.295108
