13
2727.log
C     -0.617582   -0.066148    3.445479
N      0.000441    0.000267    2.138185
C     -0.978041    0.041122    1.071735
C     -0.353463    0.048228   -0.237755
C      0.164150    0.030221   -1.325741
C      0.750290    0.015405   -2.560699
N      1.245056   -0.000036   -3.604497
H      0.158187   -0.147642    4.207690
H     -1.317233   -0.908629    3.569405
H     -1.171056    0.857541    3.635126
H      0.622966   -0.785354    1.998879
H     -1.571434    0.957987    1.177168
H     -1.701285   -0.795297    1.100140
