17
2738.log
C      2.687053    1.032097    0.000000
N      1.683373   -0.000002   -0.000000
C      0.448077    0.301536   -0.000000
C     -0.147285    1.677970   -0.000000
N     -0.440588   -0.753150   -0.000000
C     -1.812385   -0.711489   -0.000000
C     -2.616811   -1.775578    0.000000
H      3.672316    0.563722    0.000000
H      2.636264    1.678335    0.886099
H      2.636264    1.678335   -0.886099
H      0.634690    2.432910    0.000000
H     -0.774044    1.832532    0.881854
H     -0.774044    1.832532   -0.881854
H      0.014082   -1.654478   -0.000000
H     -2.235270    0.285702   -0.000000
H     -2.233132   -2.789447    0.000000
H     -3.688592   -1.641876    0.000000
