16
2806.log
N      0.000038    0.000049    2.074133
C      0.246407    0.000012    0.661226
C      1.102905   -1.048241    0.008182
C     -0.385442   -1.015975   -0.256267
C     -0.785680   -0.269078   -1.472312
C     -0.454406    1.017314   -1.380826
C      0.157340    1.344969   -0.048858
H     -0.488933   -0.834520    2.366879
H      0.862999    0.053084    2.601041
H      1.469742   -1.834368    0.659106
H      1.760911   -0.773909   -0.809469
H     -0.997559   -1.825654    0.126967
H     -1.253145   -0.737610   -2.330317
H     -0.597816    1.754205   -2.162378
H     -0.479401    2.021867    0.531925
H      1.133639    1.832924   -0.147426
