18
2815.log
N     -0.000591   -0.000466    2.035955
C      0.978264   -0.000046    0.994159
C      0.845275   -0.726906   -0.325064
C     -0.534175   -1.228623   -0.704290
C     -1.269691   -0.010510   -1.284057
C     -0.609355    1.225271   -0.651035
C      0.792627    0.784984   -0.265799
H     -0.083836   -0.914698    2.463345
H     -0.916630    0.265341    1.702047
H      1.989942    0.027661    1.388937
H      1.717107   -1.238171   -0.716655
H     -1.060935   -1.621909    0.173370
H     -0.474263   -2.046732   -1.424384
H     -2.350609   -0.046795   -1.123118
H     -1.108857    0.018831   -2.365727
H     -1.175681    1.588684    0.214296
H     -0.570382    2.062819   -1.350242
H      1.627292    1.384597   -0.608700
