18
2840.log
N     -0.000098    0.000345    2.221079
C      0.565179   -0.000076    0.883631
C      0.434395   -1.297493    0.060984
C      0.510774   -0.861152   -1.404016
C     -0.076567    0.535376   -1.411576
C     -1.358304    0.739434   -0.662966
C     -0.045983    1.058846   -0.005912
H      0.403063   -0.740785    2.781893
H     -0.998603   -0.169792    2.173725
H      1.630806    0.239844    0.989482
H     -0.534584   -1.758071    0.276664
H      1.196989   -2.033079    0.326356
H     -0.006247   -1.551057   -2.077721
H      1.553788   -0.811351   -1.733052
H      0.133508    1.185395   -2.252562
H     -1.926450   -0.127857   -0.344556
H     -1.972101    1.582198   -0.955314
H      0.178141    2.096200    0.210441
