16
2854.log
N     -0.000138    0.000114    2.321552
C      0.400746    0.000131    0.921903
C     -0.131966    1.243750    0.226970
C      0.036558    1.157922   -1.260254
C     -0.026086   -0.025503   -1.875617
C     -0.251644   -1.240592   -1.101947
C     -0.094465   -1.234088    0.222904
H      0.392410    0.803611    2.797832
H      0.360668   -0.821899    2.791634
H      1.502971    0.004054    0.799571
H      0.365262    2.133280    0.625008
H     -1.200972    1.347598    0.468333
H      0.143113    2.074074   -1.831295
H      0.047176   -0.093602   -2.955603
H     -0.549800   -2.145831   -1.619880
H     -0.260200   -2.129389    0.814492
