18
2856.log
N      0.000020    0.000162    2.351364
C      0.349532   -0.000169    0.938624
C     -0.268394    1.205959    0.250344
C      0.128907    1.264309   -1.218329
C      0.017004   -0.073433   -1.880026
C     -0.124296   -1.209432   -1.205309
C     -0.157155   -1.279781    0.289243
H      0.380065    0.819680    2.810260
H      0.396840   -0.808275    2.816137
H      1.440278    0.045627    0.771375
H      0.032724    2.125961    0.762592
H     -1.357005    1.131706    0.345280
H      1.157545    1.635835   -1.321677
H     -0.496249    1.990918   -1.748162
H      0.051784   -0.098715   -2.965815
H     -0.220189   -2.144663   -1.749895
H      0.439254   -2.134333    0.631683
H     -1.180317   -1.468461    0.640449
