18
2858.log
N     -0.000487   -0.000200    2.090977
C      0.801847    0.000002    0.864328
C      0.498252    1.252806    0.046237
C     -0.835612    1.124681   -0.670643
C     -0.799327   -0.032904   -1.657632
C     -0.176734   -1.253789   -1.059439
C      0.518710   -1.242970    0.072472
H      0.410729    0.616371    2.782081
H     -0.032853   -0.926926    2.497894
H      1.880679   -0.005323    1.091725
H      1.301928    1.402405   -0.684180
H      0.501751    2.124007    0.708460
H     -1.092138    2.055161   -1.184207
H     -1.611770    0.940074    0.078192
H     -0.239717    0.249633   -2.560530
H     -1.809934   -0.273507   -2.005062
H     -0.308948   -2.192558   -1.591578
H      0.922911   -2.174115    0.463864
