16
2898.log
N      0.000503    0.000033    2.625437
C      0.954306   -0.000128    1.520514
C      0.348828    0.030409    0.152584
C      0.449767    1.006441   -0.767624
C     -0.334025    0.639074   -1.982968
C     -0.906626   -0.693729   -1.629273
C     -0.504557   -1.029524   -0.395158
H     -0.643045    0.775822    2.519629
H     -0.561608   -0.842448    2.607280
H      1.583577   -0.890349    1.628575
H      1.617994    0.860784    1.639531
H      1.013212    1.924794   -0.662971
H      0.297091    0.584209   -2.880045
H     -1.115993    1.375024   -2.212898
H     -1.536078   -1.277752   -2.287060
H     -0.756177   -1.945625    0.126559
