13
2908.log
N     -0.000262   -0.000539    2.928319
C     -0.055945    0.006193    1.776684
C     -0.071083    0.009726    0.360754
C     -1.131881    0.213542   -0.419802
C     -0.738475    0.062042   -1.858151
N      0.724013   -0.000169   -1.850400
C      1.144326   -0.309045   -0.486216
H     -2.140182    0.402584   -0.074600
H     -1.097968    0.878043   -2.491357
H     -1.174086   -0.862185   -2.265142
H      1.089438    0.905909   -2.106945
H      2.028429    0.264790   -0.199362
H      1.399805   -1.370858   -0.375754
