20
2940.log
N     -0.000496   -0.000312    3.110839
C      0.334550    0.001226    1.692504
C     -0.679510    0.819186    0.914122
C     -0.363950    0.980015   -0.568460
C     -0.398067   -0.299753   -1.362326
C      0.234196   -0.355836   -2.718385
C      0.844948   -1.109965   -1.575831
H      0.676341   -0.539703    3.636094
H     -0.899676   -0.445482    3.254481
H      0.407328   -1.005429    1.255938
H      1.322782    0.462345    1.582884
H     -0.751903    1.805072    1.383873
H     -1.669784    0.356301    1.021398
H      0.623470    1.444155   -0.685325
H     -1.082122    1.685174   -1.002383
H     -1.316529   -0.870698   -1.251390
H      0.746853    0.533363   -3.067387
H     -0.261229   -0.920192   -3.498666
H      1.768469   -0.726469   -1.157664
H      0.769198   -2.190485   -1.574985
