18
2947.log
N     -0.000257   -0.001055    2.714785
C      0.674814   -0.000175    1.432656
C     -0.249580   -0.201507    0.263466
C     -1.571315   -0.235050    0.394060
C      0.454799   -0.352002   -1.035029
C     -0.206287   -0.092322   -2.348777
C      0.818628    0.871781   -1.836996
H      0.647802    0.230505    3.455727
H     -0.372691   -0.921135    2.916709
H      1.477747   -0.753687    1.351900
H      1.173409    0.968849    1.307476
H     -2.036892   -0.075703    1.358764
H     -2.216980   -0.405096   -0.459087
H      1.213529   -1.130989   -1.037219
H     -1.239281    0.230742   -2.345089
H      0.060085   -0.729649   -3.182625
H      0.460590    1.825005   -1.466670
H      1.789238    0.904770   -2.316495
