13
2951.log
N      0.000682   -0.001094    3.379124
C     -0.161450    0.106317    2.243241
C     -0.374595    0.265519    0.847123
C     -0.022492   -0.665589   -0.042287
C     -0.174439   -0.548273   -1.503254
C     -0.307006    0.754341   -2.178879
N      0.936002   -0.000250   -2.298348
H     -0.851723    1.190651    0.541391
H      0.420698   -1.590255    0.319734
H     -0.624576   -1.418589   -1.973976
H     -0.307809    1.654677   -1.573747
H     -0.891611    0.819978   -3.089565
H      1.635065    0.393353   -1.674806
