16
2960.log
N     -0.000075   -0.000186    1.711405
C      0.580133    0.000174    0.379385
C     -0.443940   -0.074364   -0.767357
C     -1.306353   -1.236252   -0.651666
C     -2.004425   -2.205416   -0.524339
C      1.503478    1.176188    0.266998
C      1.527178    2.087772   -0.694854
H     -0.603202   -0.806724    1.826868
H     -0.570881    0.827208    1.844767
H      1.200249   -0.904238    0.314304
H      0.076549   -0.107367   -1.730484
H     -1.056432    0.834659   -0.765731
H     -2.627655   -3.062848   -0.429080
H      2.201127    1.255139    1.097251
H      0.849487    2.065074   -1.541207
H      2.241893    2.902055   -0.671602
