15
3026.log
N      0.000201   -0.000495    1.887164
C      0.807826    0.010496    0.772573
N      2.082197    0.000651    0.765537
C      0.055440   -0.007150   -0.518507
C      0.645868    0.441867   -1.625584
C     -1.317090   -0.534306   -0.511978
C     -2.343992    0.015693   -1.153204
H      0.433202    0.196506    2.773446
H     -0.943604    0.334809    1.785780
H      2.461696    0.060724    1.708998
H      1.655919    0.829384   -1.580407
H      0.142071    0.398029   -2.583589
H     -1.481281   -1.437642    0.072270
H     -2.232646    0.942037   -1.707073
H     -3.325835   -0.442961   -1.142333
