15
3031.log
N     -0.000099    0.001736    1.643673
C      1.026304   -0.231192    0.762490
N      2.264601   -0.002374    0.957750
C      0.613428   -0.866637   -0.539208
C     -0.146627    0.079564   -1.482143
C     -1.499194    0.400273   -1.054376
C     -2.619752    0.643401   -0.694315
H      0.190240    0.613254    2.420218
H     -0.931521    0.074263    1.263496
H      2.425480    0.431825    1.866744
H      0.000329   -1.751167   -0.343163
H      1.530402   -1.185806   -1.032153
H     -0.203818   -0.386407   -2.470851
H      0.425202    1.004725   -1.607015
H     -3.616730    0.866387   -0.395025
