16
4567.log
C      1.022151   -1.157125   -1.147283
N      1.900779    0.000088   -0.981727
C      0.466332    0.207241   -1.099007
C     -0.250725    0.738561    0.106059
C     -1.756405    0.452174    0.193267
C     -1.403717   -0.188114    1.536138
O     -0.000288    0.000145    1.311250
H      0.944663   -1.783725   -0.266518
H      1.015567   -1.678245   -2.099492
H      2.367898    0.223310   -1.853113
H      0.086981    0.620622   -2.033221
H      0.009738    1.796212    0.245779
H     -2.111443   -0.250531   -0.561222
H     -2.413988    1.319558    0.224357
H     -1.660848   -1.244559    1.658504
H     -1.746912    0.366889    2.416066
