18
4621.log
C     -0.365393    1.647081   -1.673160
C     -0.803113    0.466495   -0.853226
C     -0.484768   -0.936129   -1.298099
C      0.155324   -0.370038   -0.061437
N      1.545693    0.000109   -0.004131
C     -0.300435   -0.902136    1.274776
O     -0.000713   -0.000397    2.308357
H     -1.115482    1.885021   -2.431646
H      0.569152    1.453692   -2.206574
H     -0.227439    2.537744   -1.053501
H     -1.769311    0.598684   -0.375369
H      0.142358   -1.040266   -2.177059
H     -1.237523   -1.708729   -1.186373
H      1.763916    0.792029   -0.590739
H      2.154641   -0.766474   -0.259894
H      0.179745   -1.878416    1.455698
H     -1.381685   -1.064519    1.271966
H      0.881752    0.331269    2.089878
