18
4709.log
C     -1.517217   -1.106542   -1.249219
C     -0.368012   -0.747489   -0.332785
C      0.597519    0.324006   -0.894410
N      1.986195   -0.000036   -0.653409
C     -0.081508    1.367017    0.037552
C     -0.737396    0.222369    0.816379
O     -0.013080   -0.002034    2.009669
H     -2.248933   -1.742036   -0.742316
H     -1.159495   -1.643234   -2.131515
H     -2.043249   -0.212260   -1.597658
H      0.150454   -1.649301    0.008456
H      0.473357    0.519525   -1.963260
H      2.134564   -0.145242    0.339745
H      2.583626    0.770718   -0.929818
H     -0.810496    1.996388   -0.476940
H      0.584428    1.998216    0.628278
H     -1.810316    0.321889    1.025923
H     -0.309694   -0.833885    2.389380
