18
4723.log
C     -1.874530   -0.045649   -0.722743
C     -0.432786   -0.009139   -0.256907
C      0.508548    0.017013   -1.451304
N      1.910236   -0.001619   -1.071944
C     -0.175063    1.022931    0.857488
O     -0.000108    0.000447    1.838821
C     -0.101383   -1.030554    0.844220
H     -2.115573    0.831307   -1.331267
H     -2.558927   -0.062084    0.128573
H     -2.069467   -0.936295   -1.327761
H      0.231171    0.874999   -2.086348
H      0.315166   -0.880667   -2.049360
H      2.198493    0.888371   -0.686233
H      2.496139   -0.179103   -1.876530
H     -1.017726    1.683071    1.092810
H      0.728339    1.636025    0.745649
H     -0.894685   -1.747892    1.080849
H      0.851844   -1.547623    0.703893
