18
4769.log
C     -0.757030    1.269851   -1.310028
C     -0.256848    0.306944   -0.253963
C     -0.627633    0.775600    1.145438
O      0.002367    0.000878    2.127862
C     -0.541661   -1.178301   -0.575057
C      0.921469   -1.270948   -1.027523
N      1.195155   -0.000125   -0.333793
H     -1.843814    1.379633   -1.251427
H     -0.510625    0.918927   -2.315489
H     -0.313913    2.261181   -1.174332
H     -1.709935    0.696178    1.290526
H     -0.356587    1.839540    1.247675
H      0.887292   -0.164665    1.765457
H     -1.309377   -1.373671   -1.323229
H     -0.742481   -1.757442    0.325915
H      1.032075   -1.214995   -2.116279
H      1.507818   -2.116829   -0.660756
H      1.757839    0.672846   -0.840117
