14
4805.log
C     -1.433925   -0.943295   -2.087152
C     -0.276796   -0.381994   -1.318694
N     -0.112721    1.044281   -1.145759
C     -0.491853    0.234084    0.016496
C      0.550948    0.078417    1.062756
O      0.000043    0.000676    2.289239
O      1.731802   -0.000112    0.870490
H     -1.253107   -0.868718   -3.162743
H     -2.358001   -0.404595   -1.859682
H     -1.588887   -1.997898   -1.847213
H      0.674652   -0.891346   -1.446800
H     -0.936194    1.536689   -1.480078
H     -1.510582    0.294350    0.383176
H      0.731504   -0.126375    2.909687
