18
4808.log
C      0.188394   -0.670199   -1.907183
C      0.465943    0.036168   -0.608314
N      1.828240    0.000249   -0.134112
C     -0.271715    1.311505   -0.275655
C     -0.536189    0.066124    0.526406
C     -1.862052   -0.625908    0.462013
O     -0.000596    0.000026    1.807293
H      0.776327   -0.225616   -2.716843
H     -0.862829   -0.610960   -2.192033
H      0.454541   -1.730451   -1.842411
H      2.415368    0.653788   -0.637436
H      2.225487   -0.925148   -0.247114
H     -1.021937    1.651879   -0.980406
H      0.288299    2.096933    0.219010
H     -2.326342   -0.527584   -0.519171
H     -2.536556   -0.185482    1.200364
H     -1.753702   -1.687786    0.696887
H      0.959605    0.080074    1.674981
