18
4889.log
C     -1.422166    1.634522    0.545751
C     -0.738098    0.299255    0.502671
O      0.000043   -0.000054    1.652597
C     -1.375975   -0.855197   -0.216634
C     -0.144773   -0.189065   -0.777159
C      1.165144   -0.923351   -0.811641
N      2.263862    0.000015   -1.063160
H     -2.155980    1.673528    1.357777
H     -1.949268    1.836249   -0.389153
H     -0.687895    2.426733    0.709370
H     -0.622270   -0.190409    2.360180
H     -2.327787   -0.710468   -0.714119
H     -1.233799   -1.834932    0.226315
H     -0.313123    0.459386   -1.633714
H      1.095403   -1.736947   -1.552043
H      1.329298   -1.387406    0.163196
H      2.231562    0.336586   -2.018144
H      3.153535   -0.468305   -0.948022
