16
4907.log
C     -1.423036    1.324987    0.288565
C     -0.351244    0.290692    0.435800
O     -0.000286   -0.000014    1.762988
C     -0.194744   -0.849003   -0.558809
N     -1.022306   -1.003693   -1.709807
C      0.836716    0.246174   -0.471637
O      2.086640   -0.000127    0.062294
H     -2.370462    0.974986    0.712439
H     -1.592824    1.568534   -0.761536
H     -1.136396    2.240232    0.810858
H     -0.564827   -0.706843    2.088217
H      0.138109   -1.777442   -0.094300
H     -0.710255   -0.454859   -2.497175
H     -1.998232   -0.810626   -1.535950
H      0.863825    0.955943   -1.295034
H      1.957491   -0.101609    1.014330
