18
4970.log
C     -1.448756   -0.740219   -1.889012
C      0.021495   -0.687122   -1.509253
C      0.369621    0.055292   -0.237367
N      1.753651    0.000456    0.163612
C     -0.316580    1.345842    0.132045
C     -0.551606    0.110554    0.952757
O      0.000399   -0.000302    2.215420
H     -1.579064   -1.296298   -2.819617
H     -1.865664    0.257115   -2.046052
H     -2.047941   -1.239784   -1.124681
H      0.590814   -0.233798   -2.331191
H      0.399240   -1.713234   -1.410076
H      2.325072    0.640619   -0.373364
H      2.128215   -0.932615    0.036073
H     -1.112598    1.710163   -0.505621
H      0.297979    2.115267    0.585244
H     -1.523290   -0.364303    0.889102
H      0.958929    0.058607    2.066168
