20
5050.log
C     -1.205073    1.247563   -0.750358
C     -0.842722   -0.206508   -0.476144
C     -1.124284   -1.068058   -1.699267
C      0.607798   -0.394348    0.011021
N      1.651889    0.003850   -0.918926
C      0.896392    0.318161    1.329323
O      0.003406   -0.010063    2.370434
H     -2.247354    1.331306   -1.067516
H     -0.592386    1.665331   -1.555519
H     -1.078412    1.888504    0.126678
H     -1.487088   -0.576091    0.332107
H     -0.879981   -2.117513   -1.512396
H     -2.178088   -1.016294   -1.983458
H     -0.540535   -0.734202   -2.562803
H      0.739621   -1.467295    0.196766
H      1.553658    0.975540   -1.187625
H      1.625824   -0.549485   -1.764749
H      0.930083    1.405355    1.164211
H      1.890282    0.019254    1.665015
H     -0.843721    0.405359    2.194404
