20
5061.log
C     -2.404165    0.541093   -0.049327
C     -1.606627   -0.579339   -0.698910
C     -0.225195   -0.167420   -1.216898
C      0.978163   -0.325295   -0.281537
N      2.242345   -0.000608   -0.936795
C      0.918877    0.490340    1.007389
O      0.001490    0.000327    1.962481
H     -3.397294    0.192671    0.245725
H     -2.541941    1.373183   -0.746458
H     -1.909389    0.917512    0.846265
H     -2.185028   -0.972033   -1.541534
H     -1.500492   -1.410325    0.006199
H      0.006142   -0.760592   -2.109429
H     -0.259440    0.877153   -1.556051
H      1.041881   -1.381783    0.017413
H      2.244556    0.976061   -1.213978
H      2.336151   -0.533473   -1.793607
H      0.606108    1.516784    0.787780
H      1.933279    0.536083    1.421239
H      0.331383   -0.840353    2.288498
