20
5091.log
C     -2.338290    0.387710    0.054390
C     -1.080503   -0.259390   -0.508957
C     -0.989642   -0.034578   -2.012836
C      0.153042    0.251685    0.226011
O     -0.000730    0.001549    1.602949
C      1.458144   -0.386340   -0.240754
N      2.523992    0.000293    0.678941
H     -3.232066   -0.026960   -0.418957
H     -2.333206    1.466732   -0.132944
H     -2.411395    0.232856    1.130824
H     -1.133461   -1.338490   -0.313490
H     -0.836718    1.025444   -2.241326
H     -1.919146   -0.341228   -2.498428
H     -0.177490   -0.598816   -2.475824
H      0.222910    1.343191    0.051199
H      0.904869    0.007359    1.951565
H      1.664586   -0.121290   -1.284169
H      1.345925   -1.473958   -0.186351
H      2.860708    0.933367    0.475738
H      3.313535   -0.627250    0.618808
