18
5132.log
C     -0.252456    1.753036   -0.544501
C     -0.039678    0.248344   -0.655047
C     -0.834457   -0.316528   -1.833880
N      1.392453    0.000489   -0.780266
C     -0.569397   -0.397408    0.617678
C      0.190955   -1.341946    1.429855
O      0.001510   -0.000495    1.847993
H      0.066042    2.254263   -1.463478
H      0.322749    2.149183    0.293621
H     -1.306746    1.987735   -0.382994
H     -0.495137    0.138549   -2.767799
H     -1.906150   -0.123247   -1.733038
H     -0.695683   -1.399277   -1.912968
H      1.815476    0.690287   -1.388165
H      1.564809   -0.907634   -1.194960
H     -1.657778   -0.469542    0.648586
H      1.210114   -1.580621    1.141381
H     -0.335620   -2.091558    2.016588
