20
5151.log
C      0.580165   -0.447837   -2.691528
C     -0.173096    0.223228   -1.555000
C      0.268288   -0.236601   -0.168981
N      1.682326   -0.000957    0.123801
C     -0.532839    0.412197    0.966703
C     -2.004619    0.065847    0.960009
O      0.001059    0.000326    2.202512
H      0.211367   -0.110631   -3.662521
H      0.463138   -1.534990   -2.653620
H      1.650025   -0.226854   -2.656704
H     -1.243036    0.028733   -1.672360
H     -0.050760    1.312400   -1.619509
H      0.111970   -1.319995   -0.084963
H      1.954508    0.936651   -0.152060
H      2.280724   -0.648477   -0.369939
H     -0.425639    1.508297    0.861632
H     -2.141322   -1.018855    0.967085
H     -2.518329    0.483192    0.092632
H     -2.474164    0.469763    1.858451
H      0.954770   -0.072217    2.039697
