17
5170.log
C     -2.463922    0.320214   -0.073140
C     -1.178047    0.798504   -0.727779
C     -0.019313   -0.199285   -0.667649
N      1.016294   -0.000149   -1.678873
C      0.618157   -0.259897    0.726971
N      1.904946   -0.661989    0.722629
O      0.001371    0.000951    1.740914
H     -3.257642    1.061576   -0.191970
H     -2.312465    0.141653    0.990507
H     -2.811765   -0.610573   -0.532290
H     -0.857574    1.742644   -0.273899
H     -1.366389    1.005836   -1.787269
H     -0.425054   -1.206640   -0.831508
H      1.286882    0.977106   -1.710762
H      0.658167   -0.232294   -2.596438
H      2.367052   -0.794598   -0.161841
H      2.392223   -0.744689    1.596936
