14
5212.log
C     -1.605697    0.706515   -0.719580
C     -0.583676    0.343981    0.056980
C     -0.834201    0.275973    1.514172
O     -0.000399   -0.000186    2.336023
C      0.784125    0.017536   -0.393697
C      1.048149   -1.266935   -1.087991
N      1.157814    0.000058   -1.797163
H     -2.578916    0.906706   -0.283808
H     -1.524436    0.822667   -1.794446
H     -1.878677    0.511271    1.810612
H      1.559277    0.385644    0.270705
H      0.192445   -1.903453   -1.289525
H      1.983792   -1.785134   -0.910660
H      0.348883    0.141651   -2.392116
