18
5223.log
C     -3.447000    0.001407   -0.555015
C     -1.958416    0.007932   -0.445522
C     -1.327991   -0.003753    0.726722
O      0.000012    0.000065    0.962608
C      0.851131    0.017187   -0.160593
C      2.280660    0.022421    0.332585
N      3.181738    0.000212   -0.807197
H     -3.815279    0.887491   -1.082100
H     -3.917558   -0.018245    0.430674
H     -3.805760   -0.869929   -1.112368
H     -1.392239    0.025774   -1.370782
H     -1.876519   -0.019262    1.663974
H      0.661730    0.904564   -0.776063
H      0.662619   -0.868709   -0.784283
H      2.412906   -0.811178    1.037677
H      2.451994    0.944700    0.893825
H      3.189757   -0.914578   -1.241251
H      4.130031    0.197770   -0.518051
