18
5233.log
C     -2.162613    0.953428   -0.571252
C     -0.927969    0.141565   -0.358957
C     -0.840067   -0.623704    0.942733
O     -0.001730    0.001389    1.885692
C      0.074729    0.129868   -1.239612
C      1.365068   -0.610687   -1.045569
N      2.168698   -0.000656    0.025410
H     -3.052258    0.314578   -0.576080
H     -2.133279    1.510457   -1.509348
H     -2.292533    1.663265    0.252475
H     -0.510639   -1.655320    0.742050
H     -1.831460   -0.690506    1.398204
H      0.874186    0.070199    1.456634
H     -0.015840    0.728930   -2.142819
H      1.903557   -0.657265   -2.000475
H      1.167273   -1.644786   -0.744306
H      2.396136    0.957620   -0.214886
H      3.044584   -0.497571    0.141828
