18
5312.log
C     -0.052810   -1.842236   -1.846008
C      0.574221   -0.468829   -1.732670
N      0.561469   -0.000041   -0.360443
C      0.635029    1.434901   -0.152903
C     -0.623679    0.699247    0.092978
C     -1.081716    0.341188    1.485139
O     -0.000217    0.000028    2.309453
H     -0.015032   -2.199312   -2.877375
H     -1.100310   -1.822879   -1.534775
H      0.474223   -2.559348   -1.213542
H      0.052040    0.240738   -2.396283
H      1.617585   -0.503068   -2.061708
H      0.677848    2.064274   -1.038493
H      1.244254    1.758641    0.683737
H     -1.418598    0.844366   -0.637981
H     -1.803492   -0.487860    1.417072
H     -1.598842    1.190114    1.942723
H      0.613204   -0.481268    1.734701
