18
5317.log
C      0.451771   -1.300378   -2.452130
C      0.431995    0.074100   -1.815803
N      0.350748    0.000539   -0.380543
C      0.270164    1.252020    0.379965
C     -0.648653    0.533724    1.382772
O      0.000934   -0.001260    2.503200
C     -0.897512   -0.464819    0.239051
H      0.526125   -1.222123   -3.538816
H     -0.461850   -1.854687   -2.221741
H      1.300800   -1.881740   -2.086642
H     -0.411068    0.663576   -2.226861
H      1.348499    0.616182   -2.072140
H     -0.262103    2.049927   -0.162510
H      1.220143    1.640495    0.758597
H     -1.508491    1.087610    1.755488
H      0.764737   -0.494177    2.186242
H     -1.792263   -0.200928   -0.348155
H     -0.936099   -1.524796    0.504433
