18
5323.log
C     -0.581473    0.731684   -2.183724
C      0.094702   -0.254992   -1.236561
N      1.512772    0.000719   -1.024299
C     -0.646081   -0.317389    0.090954
C     -0.030528   -1.141256    1.227114
O     -0.000716   -0.000608    2.100952
C     -0.505712    0.855115    1.074145
H     -0.070999    0.756404   -3.149767
H     -0.556412    1.744285   -1.767945
H     -1.628257    0.468357   -2.361538
H      0.029035   -1.256620   -1.680534
H      1.663010    0.953470   -0.712381
H      2.023067   -0.104571   -1.891993
H     -1.690438   -0.571209   -0.101774
H      0.975724   -1.511557    1.012898
H     -0.652801   -1.944841    1.633319
H      0.221486    1.628915    0.795707
H     -1.437050    1.348313    1.371329
