18
5325.log
C      0.344218   -0.668076   -1.919455
C      0.661480   -0.632722   -0.434017
N      1.944335   -0.000361   -0.115896
C     -0.370067    0.051900    0.440744
O      0.000320    0.000488    1.782708
C     -1.102890    1.284229   -0.013664
C     -1.830582   -0.021857    0.199672
H      1.130101   -1.206748   -2.454164
H      0.290398    0.340367   -2.338763
H     -0.600788   -1.175371   -2.125951
H      0.729818   -1.662888   -0.064083
H      2.011235    0.902073   -0.574125
H      2.720185   -0.563117   -0.439778
H      0.954234    0.173112    1.772152
H     -0.988695    1.641585   -1.030053
H     -1.241111    2.055262    0.733333
H     -2.202157   -0.549464   -0.669647
H     -2.448921   -0.107173    1.084292
