20
5330.log
C      0.497399   -1.514346   -2.099963
C      0.377468   -0.682724   -0.827328
N      1.617217    0.000442   -0.465429
C     -0.742683    0.353003   -0.947307
C     -1.411448    0.781998    0.357321
C     -0.496722    1.134723    1.523321
O      0.000244   -0.000969    2.211108
H      1.322741   -2.227260   -2.022489
H      0.691774   -0.869697   -2.964444
H     -0.418018   -2.077244   -2.304567
H      0.142107   -1.350273    0.007104
H      2.018390    0.443725   -1.285154
H      2.302370   -0.658115   -0.117167
H     -1.521375   -0.029800   -1.615593
H     -0.323592    1.234586   -1.448158
H     -2.093192   -0.010678    0.694370
H     -2.050224    1.647448    0.146164
H     -1.036232    1.789321    2.221741
H      0.385021    1.669021    1.168197
H     -0.744145   -0.432620    2.637747
