18
5401.log
C     -1.821232   -0.439522   -0.027765
C     -0.361050   -0.018093   -0.135203
N     -0.172013    1.433238   -0.120953
C      0.448239   -0.591732    1.020598
O      0.000763    0.000025    2.228840
C      0.238299   -0.522275   -1.453661
O      1.520422   -0.000619   -1.670782
H     -2.238890   -0.137494    0.934160
H     -1.927994   -1.524536   -0.120362
H     -2.412298    0.022673   -0.823565
H     -0.231518    1.769338    0.833283
H     -0.900820    1.892697   -0.654206
H      1.508435   -0.379975    0.847354
H      0.308377   -1.680316    1.044116
H      0.642606   -0.183877    2.917005
H     -0.446797   -0.245829   -2.271570
H      0.311347   -1.614460   -1.445839
H      1.463865    0.905652   -1.326145
