18
5456.log
C     -1.731294   -1.269094    0.751525
C     -0.992593    0.054088    0.869728
O      0.000457   -0.001347    1.866208
C     -0.375511    0.452261   -0.455345
C      0.732248    1.426710   -0.543447
N      0.986020    0.000892   -0.653980
C      1.340461   -0.499556   -1.962270
H     -2.139850   -1.556016    1.721645
H     -1.049010   -2.057424    0.421126
H     -2.554570   -1.201894    0.034351
H     -1.698614    0.835017    1.175648
H      0.784119   -0.359683    1.421892
H     -1.040053    0.397384   -1.316550
H      1.104456    1.902004    0.357344
H      0.805065    2.017408   -1.453421
H      2.417736   -0.397099   -2.111703
H      0.826136    0.033367   -2.776471
H      1.085790   -1.559576   -2.029669
