18
5462.log
C     -1.833180    0.736307    0.537107
C     -0.329589    0.632948    0.701272
O      0.000463    0.000958    1.933668
C      0.434793   -0.043255   -0.423888
N      1.867114   -0.000724   -0.299790
C     -0.100379   -1.313058   -1.024809
C     -0.069736   -0.046095   -1.830162
H     -2.256713    1.204480    1.427033
H     -2.297340   -0.247848    0.424338
H     -2.105592    1.343605   -0.328003
H      0.077070    1.645855    0.806130
H     -0.307872   -0.909492    1.879105
H      2.127723   -0.282188    0.639239
H      2.199082    0.949600   -0.424696
H     -1.068902   -1.682597   -0.709788
H      0.631728   -2.074064   -1.259644
H     -1.014015    0.433596   -2.051954
H      0.680220    0.031664   -2.606925
