20
5476.log
C     -1.618075    1.574666    1.252043
C     -0.453173    0.658892    0.927682
O      0.051560    0.038846    2.102789
C     -0.818287   -0.364277   -0.138153
C      0.316836   -1.300873   -0.530599
C      1.477096   -0.624099   -1.244782
N      1.033959    0.033545   -2.466777
H     -1.336819    2.293499    2.023774
H     -2.473622    0.995627    1.617325
H     -1.943630    2.124651    0.365789
H      0.380755    1.269716    0.568428
H     -0.657515   -0.486679    2.485700
H     -1.172022    0.168064   -1.025647
H     -1.664943   -0.957931    0.232966
H     -0.082916   -2.089171   -1.180411
H      0.704727   -1.801727    0.361207
H      2.266155   -1.373788   -1.410482
H      1.913822    0.139149   -0.593734
H      0.725085   -0.654610   -3.143657
H      1.794084    0.545616   -2.895539
