18
5530.log
C     -1.386663    1.560052    0.296930
C     -0.378254    0.435911    0.166313
O      0.000811   -0.000891    1.460279
C     -1.001791   -0.756367   -0.579301
N     -0.257933   -1.972818   -0.290075
C      0.873120    0.955661   -0.546178
O      1.913316    0.003027   -0.578515
H     -2.259254    1.216985    0.855583
H     -1.715502    1.910363   -0.685710
H     -0.949938    2.404173    0.834269
H      0.044886   -0.971560    1.378501
H     -1.075576   -0.516476   -1.648637
H     -2.019785   -0.894687   -0.203752
H      0.618467   -1.985952   -0.796402
H     -0.788189   -2.800207   -0.522730
H      1.204903    1.872087   -0.039432
H      0.643689    1.208971   -1.584675
H      2.094130   -0.215003    0.342733
