18
5542.log
C     -0.851736   -1.718048    0.785946
C     -0.670176   -0.230963    1.035661
O      0.001161   -0.001002    2.259248
C      0.075805    0.497334   -0.074829
O      1.397536    0.001890   -0.099857
C     -0.540274    0.374296   -1.457716
N      0.347903    1.031906   -2.409449
H     -1.284410   -2.179059    1.674986
H      0.109489   -2.193504    0.579021
H     -1.522050   -1.910318   -0.055838
H     -1.652898    0.241018    1.146287
H      0.934918   -0.173184    2.093104
H      0.091615    1.564527    0.204937
H      1.751760    0.279046   -0.957612
H     -1.565032    0.771791   -1.448471
H     -0.594381   -0.682307   -1.731060
H      0.247041    2.038700   -2.368563
H      0.155981    0.744834   -3.359110
