18
5583.log
C      1.265202   -1.207750   -1.315226
N      0.939746    0.000125   -0.590782
C      0.149134    0.999776   -1.282012
C     -0.429399    0.247823   -0.143199
C     -1.525795   -0.758752   -0.363466
C     -0.432933    0.898050    1.220162
O     -0.000268   -0.000008    2.217073
H      2.229507   -1.067080   -1.809086
H      0.532801   -1.487790   -2.084257
H      1.364263   -2.041754   -0.616406
H     -0.217004    0.743553   -2.274638
H      0.465383    2.032571   -1.166458
H     -1.453714   -1.256820   -1.330103
H     -2.498043   -0.261262   -0.321124
H     -1.506571   -1.517509    0.423077
H     -1.444265    1.207923    1.497378
H      0.203437    1.791993    1.195694
H      0.883561   -0.277922    1.953112
