18
5633.log
C      0.831385   -1.415596   -1.844601
N      0.655841    0.000730   -1.606276
C      0.719540    0.380373   -0.234026
C     -0.058389    1.559576    0.263243
C     -0.391140    0.196671    0.779962
C     -1.698377   -0.446295    0.419183
O      0.001591   -0.000029    2.110664
H      0.777567   -1.617195   -2.916314
H      0.096218   -2.056462   -1.333528
H      1.826088   -1.718035   -1.504920
H     -0.184019    0.348611   -2.046040
H      1.715566    0.274455    0.190683
H     -0.763853    2.020427   -0.420454
H      0.431234    2.244082    0.943739
H     -1.937867   -0.306010   -0.636902
H     -2.510213   -0.017584    1.012289
H     -1.671121   -1.522969    0.613642
H      0.242136   -0.925309    2.216663
