18
5637.log
C      1.592231   -1.364096   -0.673524
N      1.145100   -0.000396   -0.455046
C     -0.280639    0.192176   -0.457903
C     -1.092691   -0.382038   -1.588570
C     -0.727626    1.500454    0.147775
C     -0.851104    0.229374    0.935240
O     -0.001083    0.001044    2.003246
H      2.675742   -1.411190   -0.547864
H      1.346127   -1.771081   -1.663689
H      1.140725   -2.014658    0.079083
H      1.596983    0.638265   -1.096730
H     -0.968888   -1.464911   -1.670986
H     -0.809167    0.067884   -2.546211
H     -2.155489   -0.185419   -1.432600
H     -1.618448    1.967211   -0.255764
H      0.047966    2.184558    0.472205
H     -1.838390   -0.186046    1.103154
H      0.888590    0.066665    1.618901
