18
5656.log
C      1.581588   -1.268806   -0.936793
N      1.174837   -0.000066   -0.364858
C     -0.243614    0.175520   -0.203876
C     -0.734344   -0.460891    1.072636
O     -0.000105   -0.000154    2.178002
C     -0.841379    1.475343   -0.619488
C     -1.168977    0.222588   -1.386753
H      2.668714   -1.291591   -1.031221
H      1.139686   -1.471143   -1.923289
H      1.294647   -2.086079   -0.271582
H      1.577674    0.773105   -0.874055
H     -0.667526   -1.557346    0.990154
H     -1.786545   -0.212184    1.234573
H      0.902843    0.103815    1.846130
H     -0.197388    2.203423   -1.100654
H     -1.601060    1.908620    0.019377
H     -0.730883    0.111840   -2.371819
H     -2.162621   -0.199168   -1.287308
