18
5665.log
C      1.418907   -1.059075   -1.264155
N      0.440736    0.002571   -1.256926
C     -0.765319   -0.364731   -1.955030
C      0.288321    0.556490    0.055158
C     -0.970242    1.184221    0.569271
C     -0.480693   -0.085559    1.181007
O     -0.000933   -0.004444    2.487595
H      1.640622   -1.352689   -2.293073
H      1.088417   -1.959846   -0.716059
H      2.347265   -0.708527   -0.806102
H     -0.500712   -0.686552   -2.964932
H     -1.429562    0.494714   -2.048643
H     -1.327103   -1.191428   -1.484166
H      1.193995    1.057199    0.390969
H     -1.878945    1.137150   -0.016321
H     -0.854944    2.086373    1.156651
H     -1.056553   -0.980868    0.954179
H      0.737578   -0.612895    2.575460
