17
5712.log
C      0.937790    0.476883   -2.673373
N      0.973956   -0.000664   -1.306268
C     -0.297519    0.084585   -0.599425
C     -1.334345   -0.844421   -1.218891
C     -0.056750   -0.304644    0.823049
N     -0.264989    0.532348    1.748022
O      0.000445    0.000505    2.997634
H      1.957639    0.536636   -3.057157
H      0.469250    1.468754   -2.786170
H      0.394800   -0.223678   -3.310844
H      1.661717    0.530022   -0.786525
H     -0.701940    1.110727   -0.596539
H     -0.960011   -1.870901   -1.242233
H     -1.575399   -0.544618   -2.240070
H     -2.257892   -0.818403   -0.637859
H      0.305069   -1.312461    1.038675
H     -0.198404    0.730382    3.590483
