16
5722.log
C     -1.724310   -0.149984    1.208717
N     -1.191642   -0.736582   -0.000000
C     -1.724310   -0.149984   -1.208717
C      0.225341   -0.923705   -0.000000
C      1.091434    0.324304    0.000000
O      2.397791    0.000606    0.000000
O      0.706040    1.461031    0.000000
H     -2.813342   -0.242312    1.200655
H     -1.469706    0.912156    1.334552
H     -1.351814   -0.699874    2.077314
H     -2.813342   -0.242312   -1.200655
H     -1.351814   -0.699874   -2.077315
H     -1.469706    0.912155   -1.334552
H      0.523550   -1.515153   -0.873257
H      0.523550   -1.515154    0.873257
H      2.891398    0.833035    0.000000
