14
5740.log
C      2.189116   -0.803208   -0.592229
N      1.035443    0.000238   -0.942645
C     -0.130314   -0.278502   -0.124962
C      0.022847    0.501656    1.185954
O     -0.000041    0.000101    2.270607
C     -1.351245    0.173287   -0.772793
C     -2.359754    0.570435   -1.287712
H      3.017933   -0.548459   -1.253875
H      2.009566   -1.887464   -0.654359
H      2.503809   -0.577880    0.429705
H      0.801827   -0.093980   -1.920997
H     -0.234139   -1.343283    0.140824
H      0.188275    1.586930    1.028892
H     -3.257024    0.913129   -1.747078
