14
5761.log
C     -1.798078   -1.081463   -0.177162
N     -1.433558    0.322643   -0.293586
C     -0.028501    0.591576   -0.165502
C      0.631269    0.201383    1.153928
O     -0.000422   -0.000533    2.152682
C      0.751279    0.071042   -1.358915
O      1.947367    0.000911   -1.394454
H     -2.872129   -1.180580   -0.340044
H     -1.548521   -1.532927    0.789967
H     -1.301509   -1.657141   -0.963172
H     -1.946915    0.866594    0.386804
H      0.126614    1.682676   -0.225462
H      1.736502    0.138392    1.132179
H      0.116893   -0.211841   -2.224066
