13
5887.log
C      2.085387    1.342615   -0.000000
O      1.640104   -0.000082    0.000000
C      0.310453   -0.171596   -0.000000
C     -0.332924   -1.382804   -0.000000
N     -1.668052   -1.051406   -0.000000
C     -1.760709    0.291195    0.000000
N     -0.574444    0.856231    0.000000
H      3.173256    1.294687    0.000000
H      1.734149    1.876585    0.886623
H      1.734149    1.876585   -0.886623
H      0.025291   -2.396828   -0.000000
H     -2.434878   -1.699797   -0.000000
H     -2.705455    0.812889    0.000000
