16
5909.log
C     -1.017532    0.238085    2.420668
O      0.000370    0.000725    1.478316
C     -0.271246    0.285719    0.186302
C     -1.435797    0.738472   -0.281216
C      0.933886    0.026164   -0.636541
C      1.060941   -1.256899   -1.365633
N      0.887311   -0.000988   -2.084954
H     -0.599974   -0.011836    3.394559
H     -1.891959   -0.392327    2.226731
H     -1.325550    1.289043    2.411204
H     -2.302374    0.888370    0.346100
H     -1.539642    0.991873   -1.326580
H      1.838910    0.466041   -0.226184
H      0.219702   -1.939997   -1.307092
H      2.035333   -1.721501   -1.469089
H     -0.070438    0.079788   -2.408478
