18
5918.log
C     -0.699556   -0.765070    2.370448
O     -0.000445    0.000326    1.422356
C     -0.374013   -0.114639    0.131874
C     -1.392080   -0.854357   -0.311131
C      0.547852    0.698516   -0.744249
C     -0.053233    1.065425   -2.093681
N      1.827249   -0.001217   -0.830928
H     -0.242712   -0.552809    3.335772
H     -0.615555   -1.835563    2.153574
H     -1.760180   -0.490344    2.400807
H     -2.015721   -1.447491    0.342281
H     -1.625205   -0.871807   -1.365290
H      0.739310    1.623303   -0.187513
H     -0.224213    0.175976   -2.706134
H     -1.001570    1.597663   -1.988384
H      0.640961    1.710009   -2.638522
H      2.505511    0.572214   -1.318109
H      1.713072   -0.853413   -1.368632
