20
5935.log
C     -0.413944   -0.688799    2.656040
O     -0.000022   -0.000100    1.510191
C     -0.482166   -0.582613    0.325280
C      0.086708    0.158977   -0.876451
C     -0.355144    1.623802   -0.847885
C     -0.420678   -0.516437   -2.143059
N      1.538498    0.000278   -0.824198
H      0.004701   -0.174275    3.521596
H     -0.057407   -1.728151    2.651904
H     -1.509409   -0.700020    2.745690
H     -1.582480   -0.542809    0.303293
H     -0.173805   -1.636992    0.271695
H      0.063220    2.158826   -1.705234
H     -0.010823    2.111227    0.065774
H     -1.444324    1.717665   -0.893941
H     -0.003734   -0.024124   -3.026062
H     -0.115315   -1.564330   -2.167442
H     -1.509720   -0.460213   -2.214925
H      1.880692    0.364866    0.057790
H      1.973885    0.541672   -1.562220
