18
5963.log
C     -1.120826    0.644379    2.099073
O     -0.000186   -0.000116    1.553255
C      0.138945    0.190436    0.160846
C      1.531302   -0.308191   -0.203066
N      1.830949   -0.000008   -1.589083
C     -0.919308   -0.547599   -0.602269
C     -1.654179   -0.027207   -1.575103
H     -1.111131    0.452694    3.172335
H     -2.061028    0.267483    1.677879
H     -1.078290    1.729527    1.931092
H      0.083561    1.261693   -0.085468
H      1.590330   -1.376872    0.055897
H      2.242497    0.218142    0.438633
H      1.209403   -0.508776   -2.206476
H      2.776744   -0.275049   -1.818146
H     -1.044129   -1.592243   -0.319014
H     -1.545716    1.013035   -1.866483
H     -2.384797   -0.617594   -2.116714
