18
5978.log
C      0.088583   -0.654818    2.614607
O      0.000779   -0.000345    1.379193
C     -0.376549   -0.866956    0.333262
C     -0.589174   -0.057916   -0.928125
N     -1.779919    0.763294   -0.778749
C      0.647184    0.764939   -1.296656
O      1.826982    0.000411   -1.424064
H      0.391943    0.081370    3.359552
H      0.832336   -1.463892    2.590545
H     -0.877760   -1.085027    2.910299
H      0.401345   -1.627618    0.171416
H     -1.311523   -1.385370    0.585744
H     -0.771405   -0.782177   -1.730673
H     -1.935462    1.326167   -1.606349
H     -1.656373    1.400349    0.000311
H      0.770562    1.567498   -0.559075
H      0.477535    1.235779   -2.269591
H      2.161085   -0.172907   -0.540727
