18
6062.log
N      2.128438    0.001767   -0.830586
C      0.807716    0.562441   -0.837215
C     -0.157921    0.476964   -1.986243
C     -0.374386   -0.341776   -0.738980
C     -1.479014   -0.055984    0.239823
C     -1.153517   -0.584815    1.628795
O      0.000207   -0.002789    2.191570
H      2.780253    0.599657   -1.325018
H      2.140647   -0.899850   -1.291309
H      0.745625    1.469702   -0.244258
H      0.162285   -0.050361   -2.877623
H     -0.820250    1.315921   -2.169655
H     -0.143225   -1.400409   -0.851355
H     -2.416608   -0.511276   -0.100792
H     -1.649596    1.024582    0.296451
H     -1.057652   -1.680941    1.588778
H     -1.972097   -0.359073    2.316588
H      0.744624   -0.173853    1.604914
