18
6074.log
N      1.953441    0.000844   -0.177562
C      0.632149    0.364691   -0.627191
C      0.027031    0.009856   -2.004719
C     -1.326617   -0.156755   -1.282555
C     -0.544459   -0.374075    0.026648
C     -1.011513    0.143648    1.361402
O      0.000801   -0.000663    2.335167
H      2.672840    0.565828   -0.611402
H      2.155000   -0.969890   -0.386625
H      0.505273    1.440063   -0.453894
H      0.405172   -0.954475   -2.356249
H      0.104250    0.739354   -2.813048
H     -1.992292   -0.952546   -1.615960
H     -1.883945    0.783515   -1.260170
H     -0.281515   -1.435358    0.122012
H     -1.887372   -0.405092    1.722209
H     -1.307390    1.200325    1.257868
H      0.849576    0.139968    1.894731
