18
6077.log
N      2.107214   -0.000762   -0.015940
C      0.722605    0.352381   -0.259703
C      0.087794    0.039468   -1.614206
C     -1.430981    0.023029   -1.335543
C     -1.584404   -0.023430    0.201116
C     -0.200031   -0.371756    0.710264
O      0.000055    0.000447    2.047060
H      2.743243    0.624172   -0.493472
H      2.300682   -0.939127   -0.348647
H      0.619119    1.423659   -0.045465
H      0.429182   -0.947548   -1.945786
H      0.373582    0.751719   -2.391192
H     -1.904272   -0.837883   -1.811015
H     -1.919714    0.908704   -1.745287
H     -2.348268   -0.727139    0.534124
H     -1.850760    0.958818    0.601480
H     -0.025623   -1.457037    0.588317
H      0.956866    0.009067    2.175070
