16
6134.log
N     -1.812892   -0.905668    0.493132
C     -0.956800    0.156178    0.047565
C      0.039946    0.606636    1.078717
O      0.000378    0.000214    2.319665
C      0.504191   -0.169011   -0.120459
C      1.281229    0.500649   -1.212701
O      0.995172    0.000349   -2.506167
H     -1.933785   -1.615913   -0.216881
H     -2.728443   -0.556693    0.746476
H     -1.362532    0.896837   -0.638363
H      0.292524    1.659913    1.137658
H     -0.646462   -0.718174    2.223085
H      0.775893   -1.199045    0.099941
H      2.356583    0.435054   -0.998266
H      1.026976    1.563450   -1.249880
H      1.257848   -0.922905   -2.535239
