18
6170.log
N      2.374513   -0.000268   -0.438610
C      1.184116   -0.778689   -0.752686
C     -0.037946    0.108167   -0.750874
C     -1.437190   -0.534005   -0.839765
C     -1.930945    0.490480    0.199894
C     -0.463409    0.773205    0.576585
O      0.000836    0.000322    1.666385
H      3.207489   -0.560993   -0.566404
H      2.346171    0.258998    0.541040
H      1.014442   -1.618598   -0.064148
H      1.302357   -1.204726   -1.754858
H      0.082650    0.889252   -1.506692
H     -1.434907   -1.549737   -0.438718
H     -1.927873   -0.541137   -1.813904
H     -2.400837    1.360040   -0.264709
H     -2.574223    0.129579    1.005445
H     -0.180804    1.824154    0.706880
H     -0.431686    0.315904    2.463708
