16
6206.log
N      1.048882    0.000081   -2.422432
C      0.289595    0.917489   -1.571817
C     -0.006500    0.318618   -0.244830
C      0.417569    0.731156    0.944048
O      0.000205    0.000119    2.008606
C     -0.954457   -0.947264    1.499116
C     -0.821154   -0.932172   -0.028375
H      1.203370    0.420949   -3.331105
H      0.513286   -0.844097   -2.587423
H     -0.657185    1.241939   -2.037296
H      0.891090    1.819343   -1.426136
H      1.062994    1.564681    1.187864
H     -1.948837   -0.619619    1.818530
H     -0.741352   -1.915506    1.952493
H     -1.798282   -0.897317   -0.520042
H     -0.297407   -1.818794   -0.406334
