16
6214.log
N     -0.851707    1.393311   -1.665849
C     -0.717809   -0.039575   -1.464591
C     -0.044059   -0.318150   -0.147652
C     -0.780078    0.132276    1.094633
O      0.001445    0.005006    2.254210
C      0.960429   -1.369654   -0.051389
O      1.352408    0.000524   -0.125226
H     -1.375523    1.590980   -2.507983
H      0.065530    1.809042   -1.776136
H     -0.151876   -0.553740   -2.255184
H     -1.719247   -0.482906   -1.444251
H     -1.669785   -0.489040    1.232346
H     -1.113405    1.165576    0.939374
H      0.856623    0.399605    2.047857
H      1.202024   -1.961906   -0.930402
H      1.137271   -1.842687    0.909791
