15
6268.log
N      0.918892   -0.000353   -3.373903
C     -0.285574    0.127229   -2.565605
C      0.070371    0.472537   -1.160807
C     -0.358073   -0.191748   -0.085786
C     -0.000859    0.177813    1.263067
N     -0.448898   -0.498677    2.244745
O     -0.000084   -0.000462    3.449757
H      0.684779   -0.133215   -4.349295
H      1.457446   -0.805182   -3.078140
H     -0.935221   -0.761100   -2.567656
H     -0.875397    0.949598   -2.989550
H      0.737080    1.324372   -1.040876
H     -1.010558   -1.054667   -0.191234
H      0.653305    1.035414    1.432509
H     -0.403767   -0.588777    4.093875
