15
6272.log
N      1.264129   -0.000376   -1.922055
C      0.562245   -0.939157   -1.054445
C     -0.003717   -0.253172    0.158035
C     -1.087778    0.718121    0.059945
C     -1.566336    1.189433   -1.089578
N      0.528661   -0.628677    1.261702
O      0.000194    0.000209    2.371795
H      1.628539   -0.483578   -2.733588
H      2.056584    0.396018   -1.431159
H      1.181767   -1.768140   -0.690526
H     -0.264744   -1.372138   -1.627410
H     -1.511020    1.048554    1.000963
H     -1.130889    0.914364   -2.042633
H     -2.390341    1.893586   -1.097084
H      0.485074   -0.408194    3.093517
