17
6276.log
N      0.572523    0.000780   -2.180887
C     -0.058134    1.102549   -1.456938
C     -1.252894    0.631689   -0.640774
C     -1.000525   -0.596676    0.236709
C      0.154443   -0.407479    1.200777
N      1.365354   -0.739132    0.686956
O      0.001087    0.000785    2.334688
H      1.315324    0.347393   -2.775447
H     -0.098112   -0.453561   -2.790634
H     -0.388804    1.918415   -2.114946
H      0.694882    1.526747   -0.785898
H     -2.085046    0.401409   -1.316419
H     -1.586612    1.464034   -0.014763
H     -0.810872   -1.468566   -0.393540
H     -1.887917   -0.796598    0.838003
H      1.450000   -0.851969   -0.315726
H      2.179323   -0.523438    1.237450
