14
6311.log
N     -2.090560   -0.106704   -1.872509
C     -1.723664    0.013760   -0.479507
C     -0.236356    0.049348   -0.281345
C      0.668058    0.117496   -1.246047
O     -0.000081   -0.000244    1.085618
C      1.213996   -0.012231    1.654288
O      2.276533    0.000648    1.114702
H     -3.076180    0.077211   -1.997472
H     -1.907656   -1.042045   -2.213629
H     -2.117748   -0.784413    0.169212
H     -2.139326    0.949282   -0.088150
H      0.291094    0.178762   -2.258362
H      1.728369    0.134482   -1.060337
H      1.067749   -0.039482    2.744269
