16
6328.log
N     -2.091600    0.002630    0.261197
C     -1.054637    1.000241    0.019935
C      0.255046    0.544535    0.661828
O      0.000604    0.000009    1.930923
C      1.059587   -0.437805   -0.164543
C      0.605257   -1.107478   -1.380871
O      1.486585   -0.000162   -1.445662
H     -2.083353   -0.737043   -0.427504
H     -3.012928    0.415197    0.262838
H     -0.887803    1.238893   -1.037420
H     -1.364673    1.922362    0.515810
H      0.895623    1.424771    0.797108
H     -0.895782   -0.369616    1.854842
H      1.831479   -0.937518    0.419607
H     -0.389778   -0.922547   -1.779438
H      1.038216   -2.065909   -1.658015
