16
6463.log
O     -0.000363   -0.000087    1.895635
C     -0.462259   -0.894724    0.936412
C     -1.030881   -0.413356   -0.369514
C     -0.844482    1.049633   -0.725265
C      0.614757    1.113234   -1.204920
N      1.323313    0.000118   -0.571244
C      0.351056   -1.027972   -0.312467
H     -0.755550    0.437802    2.297039
H     -0.886178   -1.810950    1.342690
H     -1.868317   -0.959773   -0.786060
H     -1.001552    1.699940    0.140959
H     -1.550673    1.359254   -1.498609
H      1.108951    2.059469   -0.972921
H      0.647981    0.983974   -2.292464
H      1.719971    0.310702    0.307421
H      0.549229   -2.017807   -0.709341
