16
6480.log
O     -0.000186    0.000032    2.057341
C     -0.650116    0.175983    0.814634
C     -0.746904   -1.114954   -0.039122
C      0.177725   -0.678662   -1.185146
C     -0.351018    0.734572   -1.491043
C      0.272254    0.977343   -0.108125
N      1.313746   -0.000085   -0.509294
H     -0.521755   -0.601516    2.593913
H     -1.620658    0.667277    0.957102
H     -1.763386   -1.345431   -0.367268
H     -0.351436   -1.977207    0.504398
H      0.409580   -1.403641   -1.965461
H     -1.426499    0.871745   -1.614310
H      0.214155    1.227498   -2.279611
H      0.590671    1.958141    0.243607
H      1.682532   -0.517135    0.287308
