16
6495.log
O      0.000364    0.000634    1.904011
C     -0.583851   -0.578471    0.744502
C     -1.456728    0.405818   -0.047292
C     -0.571639    1.008955   -1.149246
C      0.551070    0.007199   -1.334539
N      1.612742   -0.000603   -0.343904
C      0.532588   -0.963037   -0.210573
H     -0.707752    0.297648    2.480378
H     -1.157553   -1.468167    1.031625
H     -1.923112    1.153663    0.601328
H     -2.267280   -0.159939   -0.515821
H     -0.170173    1.987562   -0.867545
H     -1.131966    1.155492   -2.075206
H      0.857123   -0.274347   -2.336885
H      1.488752    0.740485    0.340353
H      0.811011   -2.006704   -0.309031
