18
6526.log
O      0.000155    0.000141    1.928830
C     -0.892961   -0.026371    0.823722
C     -0.736656    1.208710   -0.056938
C      0.607265    1.220278   -0.765411
N      0.750786   -0.000027   -1.539046
C      0.752403   -1.177786   -0.686248
C     -0.582504   -1.285617    0.031640
H     -0.134261    0.823184    2.405502
H     -1.927873   -0.080244    1.191154
H     -0.856464    2.115364    0.547662
H     -1.536383    1.209893   -0.804653
H      1.407850    1.338338   -0.014827
H      0.663113    2.076800   -1.442591
H      1.600437    0.033790   -2.086603
H      1.560442   -1.152375    0.063376
H      0.908265   -2.061984   -1.309924
H     -0.583059   -2.143149    0.709357
H     -1.375456   -1.436160   -0.707017
