14
6546.log
O      1.792513   -0.000160   -0.000022
C      0.393289    0.028474   -0.000034
C     -0.319914    0.924683    1.049452
N     -1.245190    1.362387   -0.000008
C     -0.319895    0.924747   -1.049477
C     -0.087483   -1.342908   -0.000077
C     -0.511094   -2.464726    0.000034
H      2.106359    0.908817    0.000008
H      0.377128    1.699258    1.402757
H     -0.781168    0.432635    1.907652
H     -1.486414    2.343703    0.000020
H      0.377154    1.699343   -1.402722
H     -0.781133    0.432751   -1.907715
H     -0.881338   -3.462501    0.000133
