13
6550.log
O      1.796297   -0.000519   -0.000002
C      0.405241    0.053620   -0.000002
C     -0.322983    0.933824    1.049790
N     -1.260130    1.339512   -0.000001
C     -0.322982    0.933827   -1.049792
C     -0.084342   -1.322774   -0.000004
N     -0.497203   -2.394653    0.000013
H      2.130796    0.901172   -0.000000
H      0.363853    1.722782    1.390439
H     -0.767023    0.439264    1.915294
H     -1.547311    2.308199    0.000001
H      0.363855    1.722787   -1.390438
H     -0.767021    0.439271   -1.915298
