13
6751.log
O     -0.001981    0.000339    2.359972
C      0.747414    0.860141    1.987292
C      1.279456    0.959986    0.577682
N      0.779677    0.000252   -0.367619
C     -0.605093    0.223868   -0.742049
C     -1.024834   -0.727123   -1.765605
N     -1.368836   -1.485224   -2.557209
H      1.119205    1.640509    2.687722
H      2.373051    0.878355    0.649368
H      1.098190    1.979843    0.214195
H      0.881309   -0.937009    0.003628
H     -0.696001    1.229636   -1.166329
H     -1.317052    0.154263    0.092818
