14
6764.log
O      0.000109   -0.000432    2.665109
C     -0.778539   -0.131182    1.524176
C      0.054697   -0.084526    0.271712
O      1.262461    0.000114    0.353572
C     -0.642772   -0.149860   -1.031519
C     -0.231428    0.863675   -2.045790
N      0.141834   -0.519767   -2.201216
H      0.916448    0.043687    2.350939
H     -1.331260   -1.084107    1.521082
H     -1.535342    0.665550    1.464913
H     -1.670685   -0.497401   -1.020300
H      0.526722    1.577067   -1.739234
H     -0.981913    1.229628   -2.737536
H      1.105781   -0.642637   -1.896299
