14
6806.log
O      2.277773    0.000105   -0.000000
C      1.024461    0.485018   -0.000000
O      0.789479    1.664377    0.000000
C     -0.008662   -0.594972   -0.000000
C     -1.139709   -0.471742    1.043033
N     -2.111411   -0.832200    0.000000
C     -1.139709   -0.471742   -1.043033
H      2.870051    0.765853    0.000000
H      0.454471   -1.579495   -0.000000
H     -1.222129    0.560004    1.403192
H     -1.100196   -1.158001    1.892028
H     -2.966043   -0.290936   -0.000000
H     -1.222129    0.560004   -1.403192
H     -1.100196   -1.158001   -1.892028
