13
7110.log
N      1.849371    0.000180   -2.137331
C      1.680109   -0.526756   -0.795082
C      0.330374   -0.176286   -0.255129
C     -0.834889    0.042459   -0.940252
C     -1.889592    0.323680   -0.044572
N     -1.595482    0.332162    1.235326
S     -0.000124    0.000244    1.406617
H      2.719404   -0.324699   -2.538499
H      1.879026    1.012302   -2.120434
H      2.448686   -0.200578   -0.077800
H      1.760163   -1.618132   -0.851842
H     -0.914571    0.002532   -2.017289
H     -2.912863    0.531142   -0.339707
