13
7116.log
N      1.839425   -0.000089   -2.117776
C      1.737847   -0.386090   -0.722375
C      0.355983   -0.130490   -0.209738
C     -0.801213    0.025314   -0.913581
N     -1.933600    0.233845   -0.179506
C     -1.658768    0.239707    1.084447
S      0.000033   -0.000111    1.463719
H      2.730590   -0.285767   -2.500986
H      1.770782    1.005562   -2.214814
H      2.464107    0.111567   -0.061287
H      1.952478   -1.458746   -0.656477
H     -0.855148   -0.010016   -1.992774
H     -2.392357    0.382665    1.867051
